MODEL 1
REMARK VINA RESULT:     -11.1      0.000      0.000
REMARK  Name = Fragment
REMARK  6 active torsions:
REMARK  status: ('A' for Active; 'I' for Inactive)
REMARK    1  A    between atoms: C_3  and  C_17
REMARK    2  A    between atoms: C_5  and  C_7
REMARK    3  A    between atoms: C_7  and  C_8
REMARK    4  A    between atoms: C_9  and  C_10
REMARK    5  A    between atoms: C_13  and  O_21
REMARK    6  A    between atoms: O_21  and  C_22
REMARK                            x       y       z     vdW  Elec       q    Type
REMARK                         _______ _______ _______ _____ _____    ______ ____
ROOT
ATOM      7  C   UNL     1     -15.033 -43.349  24.837  0.00  0.00    +0.000 C 
ATOM     16  O   UNL     1     -14.405 -43.468  23.801  0.00  0.00    +0.000 OA
ENDROOT
BRANCH   7   5
ATOM      1  C   UNL     1     -18.277 -42.149  23.719  0.00  0.00    +0.000 A 
ATOM      2  C   UNL     1     -18.913 -42.000  24.888  0.00  0.00    +0.000 A 
ATOM      3  C   UNL     1     -18.281 -42.292  26.035  0.00  0.00    +0.000 A 
ATOM      4  C   UNL     1     -17.009 -42.732  25.966  0.00  0.00    +0.000 A 
ATOM      5  C   UNL     1     -16.331 -42.895  24.808  0.00  0.00    +0.000 A 
ATOM      6  C   UNL     1     -17.009 -42.588  23.681  0.00  0.00    +0.000 A 
BRANCH   3  17
ATOM     17  C   UNL     1     -18.961 -42.141  27.378  0.00  0.00    +0.000 C 
ATOM     18  F   UNL     1     -19.807 -41.124  27.432  0.00  0.00    +0.000 F 
ATOM     19  F   UNL     1     -19.637 -43.239  27.681  0.00  0.00    +0.000 F 
ATOM     20  F   UNL     1     -18.061 -41.962  28.333  0.00  0.00    +0.000 F 
ENDBRANCH   3  17
ENDBRANCH   7   5
BRANCH   7   8
ATOM      8  C   UNL     1     -14.417 -43.675  26.016  0.00  0.00    +0.000 C 
ATOM      9  C   UNL     1     -13.973 -44.910  26.330  0.00  0.00    +0.000 C 
BRANCH   9  10
ATOM     10  C   UNL     1     -13.360 -45.307  27.467  0.00  0.00    +0.000 A 
ATOM     11  C   UNL     1     -13.872 -44.928  28.655  0.00  0.00    +0.000 A 
ATOM     12  C   UNL     1     -13.308 -45.290  29.817  0.00  0.00    +0.000 A 
ATOM     13  C   UNL     1     -12.200 -46.050  29.882  0.00  0.00    +0.000 A 
ATOM     14  C   UNL     1     -11.691 -46.426  28.693  0.00  0.00    +0.000 A 
ATOM     15  C   UNL     1     -12.250 -46.068  27.524  0.00  0.00    +0.000 A 
BRANCH  13  21
ATOM     21  O   UNL     1     -11.686 -46.376  31.113  0.00  0.00    +0.000 OA
ATOM     22  C   UNL     1     -10.333 -46.089  31.381  0.00  0.00    +0.000 C 
ENDBRANCH  13  21
ENDBRANCH   9  10
ENDBRANCH   7   8
TORSDOF 5
ENDMDL
MODEL 2
REMARK VINA RESULT:     -10.3      1.000      1.445
REMARK  Name = Fragment
REMARK  6 active torsions:
REMARK  status: ('A' for Active; 'I' for Inactive)
REMARK    1  A    between atoms: C_3  and  C_17
REMARK    2  A    between atoms: C_5  and  C_7
REMARK    3  A    between atoms: C_7  and  C_8
REMARK    4  A    between atoms: C_9  and  C_10
REMARK    5  A    between atoms: C_13  and  O_21
REMARK    6  A    between atoms: O_21  and  C_22
REMARK                            x       y       z     vdW  Elec       q    Type
REMARK                         _______ _______ _______ _____ _____    ______ ____
ROOT
ATOM      7  C   UNL     1     -15.443 -42.879  24.401  0.00  0.00    +0.000 C 
ATOM     16  O   UNL     1     -14.828 -42.316  23.514  0.00  0.00    +0.000 OA
ENDROOT
BRANCH   7   5
ATOM      1  C   UNL     1     -18.975 -42.452  23.658  0.00  0.00    +0.000 A 
ATOM      2  C   UNL     1     -19.486 -42.339  24.891  0.00  0.00    +0.000 A 
ATOM      3  C   UNL     1     -18.676 -42.403  25.959  0.00  0.00    +0.000 A 
ATOM      4  C   UNL     1     -17.357 -42.582  25.746  0.00  0.00    +0.000 A 
ATOM      5  C   UNL     1     -16.802 -42.700  24.519  0.00  0.00    +0.000 A 
ATOM      6  C   UNL     1     -17.658 -42.629  23.478  0.00  0.00    +0.000 A 
BRANCH   3  17
ATOM     17  C   UNL     1     -19.208 -42.282  27.370  0.00  0.00    +0.000 C 
ATOM     18  F   UNL     1     -18.260 -42.208  28.290  0.00  0.00    +0.000 F 
ATOM     19  F   UNL     1     -19.963 -41.200  27.487  0.00  0.00    +0.000 F 
ATOM     20  F   UNL     1     -19.971 -43.323  27.666  0.00  0.00    +0.000 F 
ENDBRANCH   3  17
ENDBRANCH   7   5
BRANCH   7   8
ATOM      8  C   UNL     1     -14.751 -43.684  25.267  0.00  0.00    +0.000 C 
ATOM      9  C   UNL     1     -13.798 -43.250  26.117  0.00  0.00    +0.000 C 
BRANCH   9  10
ATOM     10  C   UNL     1     -13.075 -43.980  26.996  0.00  0.00    +0.000 A 
ATOM     11  C   UNL     1     -13.482 -45.229  27.301  0.00  0.00    +0.000 A 
ATOM     12  C   UNL     1     -12.808 -46.001  28.167  0.00  0.00    +0.000 A 
ATOM     13  C   UNL     1     -11.687 -45.591  28.787  0.00  0.00    +0.000 A 
ATOM     14  C   UNL     1     -11.285 -44.343  28.480  0.00  0.00    +0.000 A 
ATOM     15  C   UNL     1     -11.954 -43.562  27.614  0.00  0.00    +0.000 A 
BRANCH  13  21
ATOM     21  O   UNL     1     -11.058 -46.445  29.659  0.00  0.00    +0.000 OA
ATOM     22  C   UNL     1     -11.080 -46.146  31.036  0.00  0.00    +0.000 C 
ENDBRANCH  13  21
ENDBRANCH   9  10
ENDBRANCH   7   8
TORSDOF 5
ENDMDL
MODEL 3
REMARK VINA RESULT:     -10.3      1.789      2.341
REMARK  Name = Fragment
REMARK  6 active torsions:
REMARK  status: ('A' for Active; 'I' for Inactive)
REMARK    1  A    between atoms: C_3  and  C_17
REMARK    2  A    between atoms: C_5  and  C_7
REMARK    3  A    between atoms: C_7  and  C_8
REMARK    4  A    between atoms: C_9  and  C_10
REMARK    5  A    between atoms: C_13  and  O_21
REMARK    6  A    between atoms: O_21  and  C_22
REMARK                            x       y       z     vdW  Elec       q    Type
REMARK                         _______ _______ _______ _____ _____    ______ ____
ROOT
ATOM      7  C   UNL     1     -14.484 -43.217  25.590  0.00  0.00    +0.000 C 
ATOM     16  O   UNL     1     -14.080 -43.145  24.444  0.00  0.00    +0.000 OA
ENDROOT
BRANCH   7   5
ATOM      1  C   UNL     1     -17.559 -42.397  27.347  0.00  0.00    +0.000 A 
ATOM      2  C   UNL     1     -18.413 -42.267  26.323  0.00  0.00    +0.000 A 
ATOM      3  C   UNL     1     -17.982 -42.447  25.066  0.00  0.00    +0.000 A 
ATOM      4  C   UNL     1     -16.684 -42.757  24.877  0.00  0.00    +0.000 A 
ATOM      5  C   UNL     1     -15.790 -42.898  25.881  0.00  0.00    +0.000 A 
ATOM      6  C   UNL     1     -16.272 -42.707  27.128  0.00  0.00    +0.000 A 
BRANCH   3  17
ATOM     17  C   UNL     1     -18.910 -42.309  23.879  0.00  0.00    +0.000 C 
ATOM     18  F   UNL     1     -19.375 -41.082  23.709  0.00  0.00    +0.000 F 
ATOM     19  F   UNL     1     -18.289 -42.659  22.763  0.00  0.00    +0.000 F 
ATOM     20  F   UNL     1     -19.953 -43.115  24.013  0.00  0.00    +0.000 F 
ENDBRANCH   3  17
ENDBRANCH   7   5
BRANCH   7   8
ATOM      8  C   UNL     1     -13.612 -43.618  26.567  0.00  0.00    +0.000 C 
ATOM      9  C   UNL     1     -13.601 -44.848  27.123  0.00  0.00    +0.000 C 
BRANCH   9  10
ATOM     10  C   UNL     1     -12.775 -45.315  28.086  0.00  0.00    +0.000 A 
ATOM     11  C   UNL     1     -13.084 -45.089  29.379  0.00  0.00    +0.000 A 
ATOM     12  C   UNL     1     -12.305 -45.527  30.379  0.00  0.00    +0.000 A 
ATOM     13  C   UNL     1     -11.169 -46.218  30.168  0.00  0.00    +0.000 A 
ATOM     14  C   UNL     1     -10.865 -46.440  28.875  0.00  0.00    +0.000 A 
ATOM     15  C   UNL     1     -11.640 -46.005  27.867  0.00  0.00    +0.000 A 
BRANCH  13  21
ATOM     21  O   UNL     1     -10.429 -46.630  31.249  0.00  0.00    +0.000 OA
ATOM     22  C   UNL     1      -9.145 -46.081  31.441  0.00  0.00    +0.000 C 
ENDBRANCH  13  21
ENDBRANCH   9  10
ENDBRANCH   7   8
TORSDOF 5
ENDMDL
MODEL 4
REMARK VINA RESULT:     -10.0      3.802      7.781
REMARK  Name = Fragment
REMARK  6 active torsions:
REMARK  status: ('A' for Active; 'I' for Inactive)
REMARK    1  A    between atoms: C_3  and  C_17
REMARK    2  A    between atoms: C_5  and  C_7
REMARK    3  A    between atoms: C_7  and  C_8
REMARK    4  A    between atoms: C_9  and  C_10
REMARK    5  A    between atoms: C_13  and  O_21
REMARK    6  A    between atoms: O_21  and  C_22
REMARK                            x       y       z     vdW  Elec       q    Type
REMARK                         _______ _______ _______ _____ _____    ______ ____
ROOT
ATOM      7  C   UNL     1     -14.397 -43.360  25.732  0.00  0.00    +0.000 C 
ATOM     16  O   UNL     1     -14.089 -43.119  24.579  0.00  0.00    +0.000 OA
ENDROOT
BRANCH   7   5
ATOM      1  C   UNL     1     -12.624 -45.852  27.696  0.00  0.00    +0.000 A 
ATOM      2  C   UNL     1     -11.656 -45.106  28.245  0.00  0.00    +0.000 A 
ATOM      3  C   UNL     1     -11.587 -43.795  27.971  0.00  0.00    +0.000 A 
ATOM      4  C   UNL     1     -12.508 -43.269  27.141  0.00  0.00    +0.000 A 
ATOM      5  C   UNL     1     -13.501 -43.986  26.567  0.00  0.00    +0.000 A 
ATOM      6  C   UNL     1     -13.529 -45.300  26.873  0.00  0.00    +0.000 A 
BRANCH   3  17
ATOM     17  C   UNL     1     -10.510 -42.914  28.567  0.00  0.00    +0.000 C 
ATOM     18  F   UNL     1     -10.675 -41.627  28.307  0.00  0.00    +0.000 F 
ATOM     19  F   UNL     1     -10.476 -43.054  29.884  0.00  0.00    +0.000 F 
ATOM     20  F   UNL     1      -9.319 -43.265  28.106  0.00  0.00    +0.000 F 
ENDBRANCH   3  17
ENDBRANCH   7   5
BRANCH   7   8
ATOM      8  C   UNL     1     -15.644 -42.995  26.166  0.00  0.00    +0.000 C 
ATOM      9  C   UNL     1     -16.674 -42.680  25.354  0.00  0.00    +0.000 C 
BRANCH   9  10
ATOM     10  C   UNL     1     -17.926 -42.313  25.706  0.00  0.00    +0.000 A 
ATOM     11  C   UNL     1     -18.256 -42.279  27.013  0.00  0.00    +0.000 A 
ATOM     12  C   UNL     1     -19.482 -41.924  27.425  0.00  0.00    +0.000 A 
ATOM     13  C   UNL     1     -20.463 -41.577  26.572  0.00  0.00    +0.000 A 
ATOM     14  C   UNL     1     -20.129 -41.612  25.268  0.00  0.00    +0.000 A 
ATOM     15  C   UNL     1     -18.904 -41.968  24.847  0.00  0.00    +0.000 A 
BRANCH  13  21
ATOM     21  O   UNL     1     -21.691 -41.225  27.077  0.00  0.00    +0.000 OA
ATOM     22  C   UNL     1     -22.513 -40.364  26.323  0.00  0.00    +0.000 C 
ENDBRANCH  13  21
ENDBRANCH   9  10
ENDBRANCH   7   8
TORSDOF 5
ENDMDL
MODEL 5
REMARK VINA RESULT:      -9.6      3.780      8.340
REMARK  Name = Fragment
REMARK  6 active torsions:
REMARK  status: ('A' for Active; 'I' for Inactive)
REMARK    1  A    between atoms: C_3  and  C_17
REMARK    2  A    between atoms: C_5  and  C_7
REMARK    3  A    between atoms: C_7  and  C_8
REMARK    4  A    between atoms: C_9  and  C_10
REMARK    5  A    between atoms: C_13  and  O_21
REMARK    6  A    between atoms: O_21  and  C_22
REMARK                            x       y       z     vdW  Elec       q    Type
REMARK                         _______ _______ _______ _____ _____    ______ ____
ROOT
ATOM      7  C   UNL     1     -15.170 -43.556  24.171  0.00  0.00    +0.000 C 
ATOM     16  O   UNL     1     -14.565 -44.210  23.341  0.00  0.00    +0.000 OA
ENDROOT
BRANCH   7   5
ATOM      1  C   UNL     1     -15.303 -43.358  27.798  0.00  0.00    +0.000 A 
ATOM      2  C   UNL     1     -14.414 -44.300  28.141  0.00  0.00    +0.000 A 
ATOM      3  C   UNL     1     -13.777 -44.995  27.187  0.00  0.00    +0.000 A 
ATOM      4  C   UNL     1     -14.059 -44.714  25.899  0.00  0.00    +0.000 A 
ATOM      5  C   UNL     1     -14.948 -43.772  25.512  0.00  0.00    +0.000 A 
ATOM      6  C   UNL     1     -15.563 -43.100  26.507  0.00  0.00    +0.000 A 
BRANCH   3  17
ATOM     17  C   UNL     1     -12.766 -46.068  27.527  0.00  0.00    +0.000 C 
ATOM     18  F   UNL     1     -11.539 -45.604  27.701  0.00  0.00    +0.000 F 
ATOM     19  F   UNL     1     -13.116 -46.697  28.638  0.00  0.00    +0.000 F 
ATOM     20  F   UNL     1     -12.716 -46.976  26.564  0.00  0.00    +0.000 F 
ENDBRANCH   3  17
ENDBRANCH   7   5
BRANCH   7   8
ATOM      8  C   UNL     1     -16.065 -42.615  23.738  0.00  0.00    +0.000 C 
ATOM      9  C   UNL     1     -17.406 -42.742  23.817  0.00  0.00    +0.000 C 
BRANCH   9  10
ATOM     10  C   UNL     1     -18.348 -41.861  23.413  0.00  0.00    +0.000 A 
ATOM     11  C   UNL     1     -18.102 -41.087  22.337  0.00  0.00    +0.000 A 
ATOM     12  C   UNL     1     -18.997 -40.194  21.889  0.00  0.00    +0.000 A 
ATOM     13  C   UNL     1     -20.195 -40.008  22.473  0.00  0.00    +0.000 A 
ATOM     14  C   UNL     1     -20.435 -40.784  23.548  0.00  0.00    +0.000 A 
ATOM     15  C   UNL     1     -19.545 -41.680  24.004  0.00  0.00    +0.000 A 
BRANCH  13  21
ATOM     21  O   UNL     1     -21.054 -39.073  21.950  0.00  0.00    +0.000 OA
ATOM     22  C   UNL     1     -22.426 -39.166  22.256  0.00  0.00    +0.000 C 
ENDBRANCH  13  21
ENDBRANCH   9  10
ENDBRANCH   7   8
TORSDOF 5
ENDMDL
MODEL 6
REMARK VINA RESULT:      -9.4      2.389      3.100
REMARK  Name = Fragment
REMARK  6 active torsions:
REMARK  status: ('A' for Active; 'I' for Inactive)
REMARK    1  A    between atoms: C_3  and  C_17
REMARK    2  A    between atoms: C_5  and  C_7
REMARK    3  A    between atoms: C_7  and  C_8
REMARK    4  A    between atoms: C_9  and  C_10
REMARK    5  A    between atoms: C_13  and  O_21
REMARK    6  A    between atoms: O_21  and  C_22
REMARK                            x       y       z     vdW  Elec       q    Type
REMARK                         _______ _______ _______ _____ _____    ______ ____
ROOT
ATOM      7  C   UNL     1     -16.764 -42.879  24.849  0.00  0.00    +0.000 C 
ATOM     16  O   UNL     1     -16.489 -43.069  23.678  0.00  0.00    +0.000 OA
ENDROOT
BRANCH   7   5
ATOM      1  C   UNL     1     -19.639 -41.681  26.724  0.00  0.00    +0.000 A 
ATOM      2  C   UNL     1     -20.417 -41.220  25.736  0.00  0.00    +0.000 A 
ATOM      3  C   UNL     1     -19.999 -41.302  24.463  0.00  0.00    +0.000 A 
ATOM      4  C   UNL     1     -18.793 -41.854  24.224  0.00  0.00    +0.000 A 
ATOM      5  C   UNL     1     -17.979 -42.331  25.191  0.00  0.00    +0.000 A 
ATOM      6  C   UNL     1     -18.442 -42.226  26.455  0.00  0.00    +0.000 A 
BRANCH   3  17
ATOM     17  C   UNL     1     -20.843 -40.794  23.315  0.00  0.00    +0.000 C 
ATOM     18  F   UNL     1     -21.379 -41.758  22.584  0.00  0.00    +0.000 F 
ATOM     19  F   UNL     1     -21.834 -40.040  23.768  0.00  0.00    +0.000 F 
ATOM     20  F   UNL     1     -20.116 -40.037  22.507  0.00  0.00    +0.000 F 
ENDBRANCH   3  17
ENDBRANCH   7   5
BRANCH   7   8
ATOM      8  C   UNL     1     -15.841 -43.221  25.802  0.00  0.00    +0.000 C 
ATOM      9  C   UNL     1     -14.667 -43.834  25.543  0.00  0.00    +0.000 C 
BRANCH   9  10
ATOM     10  C   UNL     1     -13.711 -44.202  26.424  0.00  0.00    +0.000 A 
ATOM     11  C   UNL     1     -12.902 -43.257  26.945  0.00  0.00    +0.000 A 
ATOM     12  C   UNL     1     -11.934 -43.560  27.823  0.00  0.00    +0.000 A 
ATOM     13  C   UNL     1     -11.703 -44.816  28.246  0.00  0.00    +0.000 A 
ATOM     14  C   UNL     1     -12.514 -45.756  27.724  0.00  0.00    +0.000 A 
ATOM     15  C   UNL     1     -13.485 -45.462  26.843  0.00  0.00    +0.000 A 
BRANCH  13  21
ATOM     21  O   UNL     1     -10.692 -45.040  29.149  0.00  0.00    +0.000 OA
ATOM     22  C   UNL     1     -10.281 -46.366  29.391  0.00  0.00    +0.000 C 
ENDBRANCH  13  21
ENDBRANCH   9  10
ENDBRANCH   7   8
TORSDOF 5
ENDMDL
MODEL 7
REMARK VINA RESULT:      -9.4      3.634      8.057
REMARK  Name = Fragment
REMARK  6 active torsions:
REMARK  status: ('A' for Active; 'I' for Inactive)
REMARK    1  A    between atoms: C_3  and  C_17
REMARK    2  A    between atoms: C_5  and  C_7
REMARK    3  A    between atoms: C_7  and  C_8
REMARK    4  A    between atoms: C_9  and  C_10
REMARK    5  A    between atoms: C_13  and  O_21
REMARK    6  A    between atoms: O_21  and  C_22
REMARK                            x       y       z     vdW  Elec       q    Type
REMARK                         _______ _______ _______ _____ _____    ______ ____
ROOT
ATOM      7  C   UNL     1     -15.473 -43.294  27.422  0.00  0.00    +0.000 C 
ATOM     16  O   UNL     1     -16.021 -42.995  28.467  0.00  0.00    +0.000 OA
ENDROOT
BRANCH   7   5
ATOM      1  C   UNL     1     -13.227 -45.940  26.342  0.00  0.00    +0.000 A 
ATOM      2  C   UNL     1     -12.630 -46.259  27.498  0.00  0.00    +0.000 A 
ATOM      3  C   UNL     1     -12.963 -45.608  28.624  0.00  0.00    +0.000 A 
ATOM      4  C   UNL     1     -13.901 -44.644  28.547  0.00  0.00    +0.000 A 
ATOM      5  C   UNL     1     -14.527 -44.292  27.401  0.00  0.00    +0.000 A 
ATOM      6  C   UNL     1     -14.158 -44.975  26.297  0.00  0.00    +0.000 A 
BRANCH   3  17
ATOM     17  C   UNL     1     -12.315 -45.934  29.952  0.00  0.00    +0.000 C 
ATOM     18  F   UNL     1     -12.046 -44.866  30.686  0.00  0.00    +0.000 F 
ATOM     19  F   UNL     1     -13.100 -46.723  30.668  0.00  0.00    +0.000 F 
ATOM     20  F   UNL     1     -11.176 -46.584  29.762  0.00  0.00    +0.000 F 
ENDBRANCH   3  17
ENDBRANCH   7   5
BRANCH   7   8
ATOM      8  C   UNL     1     -15.821 -42.616  26.283  0.00  0.00    +0.000 C 
ATOM      9  C   UNL     1     -16.911 -42.887  25.536  0.00  0.00    +0.000 C 
BRANCH   9  10
ATOM     10  C   UNL     1     -17.318 -42.266  24.407  0.00  0.00    +0.000 A 
ATOM     11  C   UNL     1     -16.402 -41.939  23.472  0.00  0.00    +0.000 A 
ATOM     12  C   UNL     1     -16.744 -41.322  22.332  0.00  0.00    +0.000 A 
ATOM     13  C   UNL     1     -18.014 -40.986  22.039  0.00  0.00    +0.000 A 
ATOM     14  C   UNL     1     -18.925 -41.314  22.975  0.00  0.00    +0.000 A 
ATOM     15  C   UNL     1     -18.591 -41.932  24.120  0.00  0.00    +0.000 A 
BRANCH  13  21
ATOM     21  O   UNL     1     -18.279 -40.356  20.848  0.00  0.00    +0.000 OA
ATOM     22  C   UNL     1     -19.538 -39.751  20.666  0.00  0.00    +0.000 C 
ENDBRANCH  13  21
ENDBRANCH   9  10
ENDBRANCH   7   8
TORSDOF 5
ENDMDL
MODEL 8
REMARK VINA RESULT:      -9.0      4.221      9.358
REMARK  Name = Fragment
REMARK  6 active torsions:
REMARK  status: ('A' for Active; 'I' for Inactive)
REMARK    1  A    between atoms: C_3  and  C_17
REMARK    2  A    between atoms: C_5  and  C_7
REMARK    3  A    between atoms: C_7  and  C_8
REMARK    4  A    between atoms: C_9  and  C_10
REMARK    5  A    between atoms: C_13  and  O_21
REMARK    6  A    between atoms: O_21  and  C_22
REMARK                            x       y       z     vdW  Elec       q    Type
REMARK                         _______ _______ _______ _____ _____    ______ ____
ROOT
ATOM      7  C   UNL     1     -17.519 -42.660  23.577  0.00  0.00    +0.000 C 
ATOM     16  O   UNL     1     -16.849 -43.294  22.782  0.00  0.00    +0.000 OA
ENDROOT
BRANCH   7   5
ATOM      1  C   UNL     1     -17.671 -42.328  27.194  0.00  0.00    +0.000 A 
ATOM      2  C   UNL     1     -16.476 -42.820  27.548  0.00  0.00    +0.000 A 
ATOM      3  C   UNL     1     -15.628 -43.257  26.606  0.00  0.00    +0.000 A 
ATOM      4  C   UNL     1     -16.016 -43.184  25.317  0.00  0.00    +0.000 A 
ATOM      5  C   UNL     1     -17.211 -42.695  24.918  0.00  0.00    +0.000 A 
ATOM      6  C   UNL     1     -18.030 -42.268  25.902  0.00  0.00    +0.000 A 
BRANCH   3  17
ATOM     17  C   UNL     1     -14.269 -43.821  26.959  0.00  0.00    +0.000 C 
ATOM     18  F   UNL     1     -13.288 -42.937  26.865  0.00  0.00    +0.000 F 
ATOM     19  F   UNL     1     -14.270 -44.285  28.199  0.00  0.00    +0.000 F 
ATOM     20  F   UNL     1     -13.969 -44.836  26.163  0.00  0.00    +0.000 F 
ENDBRANCH   3  17
ENDBRANCH   7   5
BRANCH   7   8
ATOM      8  C   UNL     1     -18.572 -41.924  23.105  0.00  0.00    +0.000 C 
ATOM      9  C   UNL     1     -18.464 -40.933  22.196  0.00  0.00    +0.000 C 
BRANCH   9  10
ATOM     10  C   UNL     1     -19.453 -40.165  21.684  0.00  0.00    +0.000 A 
ATOM     11  C   UNL     1     -19.482 -39.934  20.356  0.00  0.00    +0.000 A 
ATOM     12  C   UNL     1     -20.436 -39.180  19.790  0.00  0.00    +0.000 A 
ATOM     13  C   UNL     1     -21.425 -38.606  20.499  0.00  0.00    +0.000 A 
ATOM     14  C   UNL     1     -21.392 -38.839  21.824  0.00  0.00    +0.000 A 
ATOM     15  C   UNL     1     -20.439 -39.593  22.400  0.00  0.00    +0.000 A 
BRANCH  13  21
ATOM     21  O   UNL     1     -22.364 -37.849  19.840  0.00  0.00    +0.000 OA
ATOM     22  C   UNL     1     -23.661 -37.755  20.383  0.00  0.00    +0.000 C 
ENDBRANCH  13  21
ENDBRANCH   9  10
ENDBRANCH   7   8
TORSDOF 5
ENDMDL
MODEL 9
REMARK VINA RESULT:      -8.8      4.732      9.705
REMARK  Name = Fragment
REMARK  6 active torsions:
REMARK  status: ('A' for Active; 'I' for Inactive)
REMARK    1  A    between atoms: C_3  and  C_17
REMARK    2  A    between atoms: C_5  and  C_7
REMARK    3  A    between atoms: C_7  and  C_8
REMARK    4  A    between atoms: C_9  and  C_10
REMARK    5  A    between atoms: C_13  and  O_21
REMARK    6  A    between atoms: O_21  and  C_22
REMARK                            x       y       z     vdW  Elec       q    Type
REMARK                         _______ _______ _______ _____ _____    ______ ____
ROOT
ATOM      7  C   UNL     1     -19.655 -41.924  25.273  0.00  0.00    +0.000 C 
ATOM     16  O   UNL     1     -20.707 -42.123  25.854  0.00  0.00    +0.000 OA
ENDROOT
BRANCH   7   5
ATOM      1  C   UNL     1     -17.066 -42.524  27.754  0.00  0.00    +0.000 A 
ATOM      2  C   UNL     1     -16.036 -42.873  26.972  0.00  0.00    +0.000 A 
ATOM      3  C   UNL     1     -16.192 -42.911  25.640  0.00  0.00    +0.000 A 
ATOM      4  C   UNL     1     -17.398 -42.592  25.131  0.00  0.00    +0.000 A 
ATOM      5  C   UNL     1     -18.462 -42.234  25.884  0.00  0.00    +0.000 A 
ATOM      6  C   UNL     1     -18.256 -42.211  27.218  0.00  0.00    +0.000 A 
BRANCH   3  17
ATOM     17  C   UNL     1     -15.057 -43.301  24.718  0.00  0.00    +0.000 C 
ATOM     18  F   UNL     1     -15.460 -43.858  23.587  0.00  0.00    +0.000 F 
ATOM     19  F   UNL     1     -14.332 -42.238  24.403  0.00  0.00    +0.000 F 
ATOM     20  F   UNL     1     -14.248 -44.160  25.319  0.00  0.00    +0.000 F 
ENDBRANCH   3  17
ENDBRANCH   7   5
BRANCH   7   8
ATOM      8  C   UNL     1     -19.695 -41.391  24.012  0.00  0.00    +0.000 C 
ATOM      9  C   UNL     1     -20.611 -40.495  23.591  0.00  0.00    +0.000 C 
BRANCH   9  10
ATOM     10  C   UNL     1     -20.714 -39.927  22.368  0.00  0.00    +0.000 A 
ATOM     11  C   UNL     1     -21.811 -39.200  22.074  0.00  0.00    +0.000 A 
ATOM     12  C   UNL     1     -21.971 -38.613  20.879  0.00  0.00    +0.000 A 
ATOM     13  C   UNL     1     -21.057 -38.704  19.895  0.00  0.00    +0.000 A 
ATOM     14  C   UNL     1     -19.963 -39.431  20.194  0.00  0.00    +0.000 A 
ATOM     15  C   UNL     1     -19.795 -40.023  21.388  0.00  0.00    +0.000 A 
BRANCH  13  21
ATOM     21  O   UNL     1     -21.299 -38.072  18.700  0.00  0.00    +0.000 OA
ATOM     22  C   UNL     1     -22.570 -38.206  18.107  0.00  0.00    +0.000 C 
ENDBRANCH  13  21
ENDBRANCH   9  10
ENDBRANCH   7   8
TORSDOF 5
ENDMDL
MODEL 10
REMARK VINA RESULT:      -8.7      3.994      5.364
REMARK  Name = Fragment
REMARK  6 active torsions:
REMARK  status: ('A' for Active; 'I' for Inactive)
REMARK    1  A    between atoms: C_3  and  C_17
REMARK    2  A    between atoms: C_5  and  C_7
REMARK    3  A    between atoms: C_7  and  C_8
REMARK    4  A    between atoms: C_9  and  C_10
REMARK    5  A    between atoms: C_13  and  O_21
REMARK    6  A    between atoms: O_21  and  C_22
REMARK                            x       y       z     vdW  Elec       q    Type
REMARK                         _______ _______ _______ _____ _____    ______ ____
ROOT
ATOM      7  C   UNL     1     -17.136 -41.202  22.278  0.00  0.00    +0.000 C 
ATOM     16  O   UNL     1     -16.357 -40.690  21.495  0.00  0.00    +0.000 OA
ENDROOT
BRANCH   7   5
ATOM      1  C   UNL     1     -20.605 -40.671  23.226  0.00  0.00    +0.000 A 
ATOM      2  C   UNL     1     -21.068 -40.017  22.153  0.00  0.00    +0.000 A 
ATOM      3  C   UNL     1     -20.247 -39.753  21.126  0.00  0.00    +0.000 A 
ATOM      4  C   UNL     1     -18.966 -40.162  21.214  0.00  0.00    +0.000 A 
ATOM      5  C   UNL     1     -18.459 -40.824  22.278  0.00  0.00    +0.000 A 
ATOM      6  C   UNL     1     -19.324 -41.066  23.286  0.00  0.00    +0.000 A 
BRANCH   3  17
ATOM     17  C   UNL     1     -20.726 -39.016  19.894  0.00  0.00    +0.000 C 
ATOM     18  F   UNL     1     -21.480 -39.755  19.095  0.00  0.00    +0.000 F 
ATOM     19  F   UNL     1     -21.434 -37.951  20.238  0.00  0.00    +0.000 F 
ATOM     20  F   UNL     1     -19.695 -38.586  19.183  0.00  0.00    +0.000 F 
ENDBRANCH   3  17
ENDBRANCH   7   5
BRANCH   7   8
ATOM      8  C   UNL     1     -16.664 -42.150  23.146  0.00  0.00    +0.000 C 
ATOM      9  C   UNL     1     -15.542 -42.019  23.884  0.00  0.00    +0.000 C 
BRANCH   9  10
ATOM     10  C   UNL     1     -15.015 -42.906  24.757  0.00  0.00    +0.000 A 
ATOM     11  C   UNL     1     -14.772 -42.513  26.024  0.00  0.00    +0.000 A 
ATOM     12  C   UNL     1     -14.249 -43.346  26.936  0.00  0.00    +0.000 A 
ATOM     13  C   UNL     1     -13.934 -44.624  26.656  0.00  0.00    +0.000 A 
ATOM     14  C   UNL     1     -14.178 -45.012  25.390  0.00  0.00    +0.000 A 
ATOM     15  C   UNL     1     -14.700 -44.183  24.470  0.00  0.00    +0.000 A 
BRANCH  13  21
ATOM     21  O   UNL     1     -13.403 -45.411  27.649  0.00  0.00    +0.000 OA
ATOM     22  C   UNL     1     -12.126 -45.097  28.154  0.00  0.00    +0.000 C 
ENDBRANCH  13  21
ENDBRANCH   9  10
ENDBRANCH   7   8
TORSDOF 5
ENDMDL
