MODEL 1
REMARK VINA RESULT:     -10.7      0.000      0.000
REMARK  Name = Fragment
REMARK  5 active torsions:
REMARK  status: ('A' for Active; 'I' for Inactive)
REMARK    1  A    between atoms: C_4  and  O_25
REMARK    2  A    between atoms: C_5  and  C_7
REMARK    3  A    between atoms: C_7  and  C_8
REMARK    4  A    between atoms: C_9  and  C_10
REMARK    5  A    between atoms: C_13  and  C_18
REMARK                            x       y       z     vdW  Elec       q    Type
REMARK                         _______ _______ _______ _____ _____    ______ ____
ROOT
ATOM      8  C   UNL     1     -14.520 -43.435  25.553  0.00  0.00    +0.000 C 
ATOM      9  C   UNL     1     -14.201 -44.643  26.066  0.00  0.00    +0.000 C 
ENDROOT
BRANCH   9  10
ATOM     10  C   UNL     1     -13.254 -44.932  26.988  0.00  0.00    +0.000 A 
ATOM     11  C   UNL     1     -12.855 -46.213  27.133  0.00  0.00    +0.000 A 
ATOM     12  C   UNL     1     -11.922 -46.574  28.026  0.00  0.00    +0.000 A 
ATOM     13  C   UNL     1     -11.351 -45.671  28.842  0.00  0.00    +0.000 A 
ATOM     14  C   UNL     1     -11.715 -44.388  28.680  0.00  0.00    +0.000 A 
ATOM     15  C   UNL     1     -12.649 -44.029  27.785  0.00  0.00    +0.000 A 
BRANCH  13  17
ATOM     17  C   UNL     1     -10.256 -46.063  29.808  0.00  0.00    +0.000 C 
ATOM     18  F   UNL     1      -9.491 -45.040  30.157  0.00  0.00    +0.000 F 
ATOM     19  F   UNL     1     -10.730 -46.606  30.918  0.00  0.00    +0.000 F 
ATOM     20  F   UNL     1      -9.471 -46.963  29.237  0.00  0.00    +0.000 F 
ENDBRANCH  13  17
ENDBRANCH   9  10
BRANCH   8   7
ATOM      7  C   UNL     1     -15.498 -43.220  24.615  0.00  0.00    +0.000 C 
ATOM     16  O   UNL     1     -15.183 -43.356  23.450  0.00  0.00    +0.000 OA
BRANCH   7   5
ATOM      1  C   UNL     1     -18.370 -42.215  26.600  0.00  0.00    +0.000 A 
ATOM      2  C   UNL     1     -19.341 -42.168  25.685  0.00  0.00    +0.000 A 
ATOM      3  C   UNL     1     -19.026 -42.468  24.421  0.00  0.00    +0.000 A 
ATOM      4  C   UNL     1     -17.785 -42.822  24.032  0.00  0.00    +0.000 A 
ATOM      5  C   UNL     1     -16.785 -42.867  24.958  0.00  0.00    +0.000 A 
ATOM      6  C   UNL     1     -17.127 -42.557  26.230  0.00  0.00    +0.000 A 
BRANCH   4  21
ATOM     21  O   UNL     1     -17.655 -43.073  22.695  0.00  0.00    +0.000 OA
ATOM     22  H   UNL     1     -18.105 -43.862  22.372  0.00  0.00    +0.000 HD
ENDBRANCH   4  21
ENDBRANCH   7   5
ENDBRANCH   8   7
TORSDOF 5
ENDMDL
MODEL 2
REMARK VINA RESULT:     -10.7      4.974      8.055
REMARK  Name = Fragment
REMARK  5 active torsions:
REMARK  status: ('A' for Active; 'I' for Inactive)
REMARK    1  A    between atoms: C_4  and  O_25
REMARK    2  A    between atoms: C_5  and  C_7
REMARK    3  A    between atoms: C_7  and  C_8
REMARK    4  A    between atoms: C_9  and  C_10
REMARK    5  A    between atoms: C_13  and  C_18
REMARK                            x       y       z     vdW  Elec       q    Type
REMARK                         _______ _______ _______ _____ _____    ______ ____
ROOT
ATOM      8  C   UNL     1     -13.896 -45.109  29.767  0.00  0.00    +0.000 C 
ATOM      9  C   UNL     1     -13.600 -45.120  28.450  0.00  0.00    +0.000 C 
ENDROOT
BRANCH   9  10
ATOM     10  C   UNL     1     -14.239 -44.472  27.448  0.00  0.00    +0.000 A 
ATOM     11  C   UNL     1     -13.960 -44.809  26.172  0.00  0.00    +0.000 A 
ATOM     12  C   UNL     1     -14.554 -44.210  25.128  0.00  0.00    +0.000 A 
ATOM     13  C   UNL     1     -15.446 -43.221  25.307  0.00  0.00    +0.000 A 
ATOM     14  C   UNL     1     -15.757 -42.903  26.574  0.00  0.00    +0.000 A 
ATOM     15  C   UNL     1     -15.162 -43.504  27.617  0.00  0.00    +0.000 A 
BRANCH  13  17
ATOM     17  C   UNL     1     -16.161 -42.584  24.138  0.00  0.00    +0.000 C 
ATOM     18  F   UNL     1     -16.361 -43.430  23.138  0.00  0.00    +0.000 F 
ATOM     19  F   UNL     1     -17.338 -42.079  24.476  0.00  0.00    +0.000 F 
ATOM     20  F   UNL     1     -15.429 -41.587  23.668  0.00  0.00    +0.000 F 
ENDBRANCH  13  17
ENDBRANCH   9  10
BRANCH   8   7
ATOM      7  C   UNL     1     -13.199 -45.797  30.728  0.00  0.00    +0.000 C 
ATOM     16  O   UNL     1     -13.735 -46.776  31.204  0.00  0.00    +0.000 OA
BRANCH   7   5
ATOM      1  C   UNL     1      -9.642 -45.898  31.463  0.00  0.00    +0.000 A 
ATOM      2  C   UNL     1      -9.427 -44.686  31.980  0.00  0.00    +0.000 A 
ATOM      3  C   UNL     1     -10.467 -43.851  32.074  0.00  0.00    +0.000 A 
ATOM      4  C   UNL     1     -11.715 -44.178  31.682  0.00  0.00    +0.000 A 
ATOM      5  C   UNL     1     -11.943 -45.411  31.147  0.00  0.00    +0.000 A 
ATOM      6  C   UNL     1     -10.875 -46.237  31.061  0.00  0.00    +0.000 A 
BRANCH   4  21
ATOM     21  O   UNL     1     -12.641 -43.185  31.839  0.00  0.00    +0.000 OA
ATOM     22  H   UNL     1     -13.142 -42.952  31.048  0.00  0.00    +0.000 HD
ENDBRANCH   4  21
ENDBRANCH   7   5
ENDBRANCH   8   7
TORSDOF 5
ENDMDL
MODEL 3
REMARK VINA RESULT:     -10.1      1.562      2.111
REMARK  Name = Fragment
REMARK  5 active torsions:
REMARK  status: ('A' for Active; 'I' for Inactive)
REMARK    1  A    between atoms: C_4  and  O_25
REMARK    2  A    between atoms: C_5  and  C_7
REMARK    3  A    between atoms: C_7  and  C_8
REMARK    4  A    between atoms: C_9  and  C_10
REMARK    5  A    between atoms: C_13  and  C_18
REMARK                            x       y       z     vdW  Elec       q    Type
REMARK                         _______ _______ _______ _____ _____    ______ ____
ROOT
ATOM      8  C   UNL     1     -15.381 -43.439  25.672  0.00  0.00    +0.000 C 
ATOM      9  C   UNL     1     -14.446 -44.384  25.908  0.00  0.00    +0.000 C 
ENDROOT
BRANCH   9  10
ATOM     10  C   UNL     1     -13.975 -44.808  27.104  0.00  0.00    +0.000 A 
ATOM     11  C   UNL     1     -14.484 -44.272  28.232  0.00  0.00    +0.000 A 
ATOM     12  C   UNL     1     -14.066 -44.642  29.452  0.00  0.00    +0.000 A 
ATOM     13  C   UNL     1     -13.094 -45.558  29.607  0.00  0.00    +0.000 A 
ATOM     14  C   UNL     1     -12.606 -46.124  28.491  0.00  0.00    +0.000 A 
ATOM     15  C   UNL     1     -13.026 -45.751  27.272  0.00  0.00    +0.000 A 
BRANCH  13  17
ATOM     17  C   UNL     1     -12.661 -46.022  30.979  0.00  0.00    +0.000 C 
ATOM     18  F   UNL     1     -11.466 -46.591  30.973  0.00  0.00    +0.000 F 
ATOM     19  F   UNL     1     -12.632 -45.037  31.863  0.00  0.00    +0.000 F 
ATOM     20  F   UNL     1     -13.522 -46.923  31.427  0.00  0.00    +0.000 F 
ENDBRANCH  13  17
ENDBRANCH   9  10
BRANCH   8   7
ATOM      7  C   UNL     1     -15.807 -43.059  24.424  0.00  0.00    +0.000 C 
ATOM     16  O   UNL     1     -15.032 -43.220  23.504  0.00  0.00    +0.000 OA
BRANCH   7   5
ATOM      1  C   UNL     1     -19.292 -42.153  24.914  0.00  0.00    +0.000 A 
ATOM      2  C   UNL     1     -19.564 -41.472  23.799  0.00  0.00    +0.000 A 
ATOM      3  C   UNL     1     -18.584 -41.320  22.901  0.00  0.00    +0.000 A 
ATOM      4  C   UNL     1     -17.347 -41.829  23.065  0.00  0.00    +0.000 A 
ATOM      5  C   UNL     1     -17.057 -42.521  24.204  0.00  0.00    +0.000 A 
ATOM      6  C   UNL     1     -18.063 -42.659  25.098  0.00  0.00    +0.000 A 
BRANCH   4  21
ATOM     21  O   UNL     1     -16.477 -41.553  22.048  0.00  0.00    +0.000 OA
ATOM     22  H   UNL     1     -15.543 -41.546  22.288  0.00  0.00    +0.000 HD
ENDBRANCH   4  21
ENDBRANCH   7   5
ENDBRANCH   8   7
TORSDOF 5
ENDMDL
MODEL 4
REMARK VINA RESULT:     -10.0      5.017      7.798
REMARK  Name = Fragment
REMARK  5 active torsions:
REMARK  status: ('A' for Active; 'I' for Inactive)
REMARK    1  A    between atoms: C_4  and  O_25
REMARK    2  A    between atoms: C_5  and  C_7
REMARK    3  A    between atoms: C_7  and  C_8
REMARK    4  A    between atoms: C_9  and  C_10
REMARK    5  A    between atoms: C_13  and  C_18
REMARK                            x       y       z     vdW  Elec       q    Type
REMARK                         _______ _______ _______ _____ _____    ______ ____
ROOT
ATOM      8  C   UNL     1     -13.044 -45.643  27.062  0.00  0.00    +0.000 C 
ATOM      9  C   UNL     1     -13.610 -44.418  27.053  0.00  0.00    +0.000 C 
ENDROOT
BRANCH   9  10
ATOM     10  C   UNL     1     -14.507 -43.921  26.169  0.00  0.00    +0.000 A 
ATOM     11  C   UNL     1     -15.517 -43.153  26.628  0.00  0.00    +0.000 A 
ATOM     12  C   UNL     1     -16.443 -42.628  25.811  0.00  0.00    +0.000 A 
ATOM     13  C   UNL     1     -16.420 -42.864  24.488  0.00  0.00    +0.000 A 
ATOM     14  C   UNL     1     -15.398 -43.598  24.018  0.00  0.00    +0.000 A 
ATOM     15  C   UNL     1     -14.473 -44.123  24.837  0.00  0.00    +0.000 A 
BRANCH  13  17
ATOM     17  C   UNL     1     -17.425 -42.226  23.556  0.00  0.00    +0.000 C 
ATOM     18  F   UNL     1     -17.880 -43.068  22.641  0.00  0.00    +0.000 F 
ATOM     19  F   UNL     1     -18.470 -41.731  24.200  0.00  0.00    +0.000 F 
ATOM     20  F   UNL     1     -16.850 -41.222  22.914  0.00  0.00    +0.000 F 
ENDBRANCH  13  17
ENDBRANCH   9  10
BRANCH   8   7
ATOM      7  C   UNL     1     -12.136 -46.076  27.995  0.00  0.00    +0.000 C 
ATOM     16  O   UNL     1     -11.258 -46.819  27.607  0.00  0.00    +0.000 OA
BRANCH   7   5
ATOM      1  C   UNL     1     -13.266 -45.786  31.436  0.00  0.00    +0.000 A 
ATOM      2  C   UNL     1     -12.366 -44.949  31.958  0.00  0.00    +0.000 A 
ATOM      3  C   UNL     1     -11.394 -44.496  31.159  0.00  0.00    +0.000 A 
ATOM      4  C   UNL     1     -11.288 -44.835  29.859  0.00  0.00    +0.000 A 
ATOM      5  C   UNL     1     -12.199 -45.694  29.318  0.00  0.00    +0.000 A 
ATOM      6  C   UNL     1     -13.171 -46.141  30.146  0.00  0.00    +0.000 A 
BRANCH   4  21
ATOM     21  O   UNL     1     -10.217 -44.286  29.211  0.00  0.00    +0.000 OA
ATOM     22  H   UNL     1     -10.318 -44.173  28.259  0.00  0.00    +0.000 HD
ENDBRANCH   4  21
ENDBRANCH   7   5
ENDBRANCH   8   7
TORSDOF 5
ENDMDL
MODEL 5
REMARK VINA RESULT:     -10.0      1.266      2.163
REMARK  Name = Fragment
REMARK  5 active torsions:
REMARK  status: ('A' for Active; 'I' for Inactive)
REMARK    1  A    between atoms: C_4  and  O_25
REMARK    2  A    between atoms: C_5  and  C_7
REMARK    3  A    between atoms: C_7  and  C_8
REMARK    4  A    between atoms: C_9  and  C_10
REMARK    5  A    between atoms: C_13  and  C_18
REMARK                            x       y       z     vdW  Elec       q    Type
REMARK                         _______ _______ _______ _____ _____    ______ ____
ROOT
ATOM      8  C   UNL     1     -14.988 -43.290  26.181  0.00  0.00    +0.000 C 
ATOM      9  C   UNL     1     -14.400 -44.505  26.156  0.00  0.00    +0.000 C 
ENDROOT
BRANCH   9  10
ATOM     10  C   UNL     1     -13.377 -44.951  26.921  0.00  0.00    +0.000 A 
ATOM     11  C   UNL     1     -12.719 -44.073  27.705  0.00  0.00    +0.000 A 
ATOM     12  C   UNL     1     -11.694 -44.442  28.489  0.00  0.00    +0.000 A 
ATOM     13  C   UNL     1     -11.257 -45.713  28.512  0.00  0.00    +0.000 A 
ATOM     14  C   UNL     1     -11.929 -46.602  27.762  0.00  0.00    +0.000 A 
ATOM     15  C   UNL     1     -12.954 -46.230  26.979  0.00  0.00    +0.000 A 
BRANCH  13  17
ATOM     17  C   UNL     1     -10.143 -46.146  29.437  0.00  0.00    +0.000 C 
ATOM     18  F   UNL     1     -10.588 -46.566  30.612  0.00  0.00    +0.000 F 
ATOM     19  F   UNL     1      -9.402 -47.113  28.921  0.00  0.00    +0.000 F 
ATOM     20  F   UNL     1      -9.341 -45.118  29.667  0.00  0.00    +0.000 F 
ENDBRANCH  13  17
ENDBRANCH   9  10
BRANCH   8   7
ATOM      7  C   UNL     1     -16.025 -42.909  25.369  0.00  0.00    +0.000 C 
ATOM     16  O   UNL     1     -15.819 -42.911  24.172  0.00  0.00    +0.000 OA
BRANCH   7   5
ATOM      1  C   UNL     1     -19.507 -41.879  25.505  0.00  0.00    +0.000 A 
ATOM      2  C   UNL     1     -19.722 -41.788  26.819  0.00  0.00    +0.000 A 
ATOM      3  C   UNL     1     -18.707 -42.074  27.642  0.00  0.00    +0.000 A 
ATOM      4  C   UNL     1     -17.484 -42.437  27.208  0.00  0.00    +0.000 A 
ATOM      5  C   UNL     1     -17.256 -42.539  25.867  0.00  0.00    +0.000 A 
ATOM      6  C   UNL     1     -18.298 -42.247  25.055  0.00  0.00    +0.000 A 
BRANCH   4  21
ATOM     21  O   UNL     1     -16.583 -42.707  28.199  0.00  0.00    +0.000 OA
ATOM     22  H   UNL     1     -16.887 -42.536  29.098  0.00  0.00    +0.000 HD
ENDBRANCH   4  21
ENDBRANCH   7   5
ENDBRANCH   8   7
TORSDOF 5
ENDMDL
MODEL 6
REMARK VINA RESULT:      -9.9      2.927      4.330
REMARK  Name = Fragment
REMARK  5 active torsions:
REMARK  status: ('A' for Active; 'I' for Inactive)
REMARK    1  A    between atoms: C_4  and  O_25
REMARK    2  A    between atoms: C_5  and  C_7
REMARK    3  A    between atoms: C_7  and  C_8
REMARK    4  A    between atoms: C_9  and  C_10
REMARK    5  A    between atoms: C_13  and  C_18
REMARK                            x       y       z     vdW  Elec       q    Type
REMARK                         _______ _______ _______ _____ _____    ______ ____
ROOT
ATOM      8  C   UNL     1     -17.192 -41.778  23.152  0.00  0.00    +0.000 C 
ATOM      9  C   UNL     1     -15.867 -41.950  23.347  0.00  0.00    +0.000 C 
ENDROOT
BRANCH   9  10
ATOM     10  C   UNL     1     -15.255 -42.752  24.249  0.00  0.00    +0.000 A 
ATOM     11  C   UNL     1     -14.981 -42.262  25.476  0.00  0.00    +0.000 A 
ATOM     12  C   UNL     1     -14.376 -42.997  26.420  0.00  0.00    +0.000 A 
ATOM     13  C   UNL     1     -13.991 -44.262  26.179  0.00  0.00    +0.000 A 
ATOM     14  C   UNL     1     -14.292 -44.771  24.973  0.00  0.00    +0.000 A 
ATOM     15  C   UNL     1     -14.898 -44.033  24.029  0.00  0.00    +0.000 A 
BRANCH  13  17
ATOM     17  C   UNL     1     -13.363 -45.115  27.259  0.00  0.00    +0.000 C 
ATOM     18  F   UNL     1     -12.179 -44.663  27.642  0.00  0.00    +0.000 F 
ATOM     19  F   UNL     1     -14.125 -45.209  28.337  0.00  0.00    +0.000 F 
ATOM     20  F   UNL     1     -13.185 -46.343  26.797  0.00  0.00    +0.000 F 
ENDBRANCH  13  17
ENDBRANCH   9  10
BRANCH   8   7
ATOM      7  C   UNL     1     -17.740 -40.942  22.213  0.00  0.00    +0.000 C 
ATOM     16  O   UNL     1     -16.982 -40.453  21.400  0.00  0.00    +0.000 OA
BRANCH   7   5
ATOM      1  C   UNL     1     -21.172 -40.423  23.288  0.00  0.00    +0.000 A 
ATOM      2  C   UNL     1     -21.780 -40.106  22.142  0.00  0.00    +0.000 A 
ATOM      3  C   UNL     1     -21.040 -40.065  21.030  0.00  0.00    +0.000 A 
ATOM      4  C   UNL     1     -19.720 -40.338  21.010  0.00  0.00    +0.000 A 
ATOM      5  C   UNL     1     -19.088 -40.657  22.175  0.00  0.00    +0.000 A 
ATOM      6  C   UNL     1     -19.858 -40.689  23.288  0.00  0.00    +0.000 A 
BRANCH   4  21
ATOM     21  O   UNL     1     -19.132 -40.226  19.781  0.00  0.00    +0.000 OA
ATOM     22  H   UNL     1     -18.190 -40.428  19.750  0.00  0.00    +0.000 HD
ENDBRANCH   4  21
ENDBRANCH   7   5
ENDBRANCH   8   7
TORSDOF 5
ENDMDL
MODEL 7
REMARK VINA RESULT:      -9.9      5.310      8.399
REMARK  Name = Fragment
REMARK  5 active torsions:
REMARK  status: ('A' for Active; 'I' for Inactive)
REMARK    1  A    between atoms: C_4  and  O_25
REMARK    2  A    between atoms: C_5  and  C_7
REMARK    3  A    between atoms: C_7  and  C_8
REMARK    4  A    between atoms: C_9  and  C_10
REMARK    5  A    between atoms: C_13  and  C_18
REMARK                            x       y       z     vdW  Elec       q    Type
REMARK                         _______ _______ _______ _____ _____    ______ ____
ROOT
ATOM      8  C   UNL     1     -15.347 -43.141  26.382  0.00  0.00    +0.000 C 
ATOM      9  C   UNL     1     -16.322 -42.787  25.517  0.00  0.00    +0.000 C 
ENDROOT
BRANCH   9  10
ATOM     10  C   UNL     1     -17.583 -42.389  25.801  0.00  0.00    +0.000 A 
ATOM     11  C   UNL     1     -18.411 -42.072  24.785  0.00  0.00    +0.000 A 
ATOM     12  C   UNL     1     -19.674 -41.668  24.991  0.00  0.00    +0.000 A 
ATOM     13  C   UNL     1     -20.171 -41.539  26.233  0.00  0.00    +0.000 A 
ATOM     14  C   UNL     1     -19.366 -41.886  27.250  0.00  0.00    +0.000 A 
ATOM     15  C   UNL     1     -18.102 -42.290  27.042  0.00  0.00    +0.000 A 
BRANCH  13  17
ATOM     17  C   UNL     1     -21.611 -41.142  26.469  0.00  0.00    +0.000 C 
ATOM     18  F   UNL     1     -22.419 -42.187  26.567  0.00  0.00    +0.000 F 
ATOM     19  F   UNL     1     -21.764 -40.413  27.563  0.00  0.00    +0.000 F 
ATOM     20  F   UNL     1     -22.035 -40.412  25.449  0.00  0.00    +0.000 F 
ENDBRANCH  13  17
ENDBRANCH   9  10
BRANCH   8   7
ATOM      7  C   UNL     1     -14.086 -43.538  26.016  0.00  0.00    +0.000 C 
ATOM     16  O   UNL     1     -13.686 -43.172  24.930  0.00  0.00    +0.000 OA
BRANCH   7   5
ATOM      1  C   UNL     1     -12.707 -46.440  27.712  0.00  0.00    +0.000 A 
ATOM      2  C   UNL     1     -11.736 -45.899  28.451  0.00  0.00    +0.000 A 
ATOM      3  C   UNL     1     -11.551 -44.577  28.372  0.00  0.00    +0.000 A 
ATOM      4  C   UNL     1     -12.301 -43.771  27.595  0.00  0.00    +0.000 A 
ATOM      5  C   UNL     1     -13.291 -44.315  26.831  0.00  0.00    +0.000 A 
ATOM      6  C   UNL     1     -13.458 -45.655  26.926  0.00  0.00    +0.000 A 
BRANCH   4  21
ATOM     21  O   UNL     1     -11.949 -42.451  27.633  0.00  0.00    +0.000 OA
ATOM     22  H   UNL     1     -12.586 -41.838  27.248  0.00  0.00    +0.000 HD
ENDBRANCH   4  21
ENDBRANCH   7   5
ENDBRANCH   8   7
TORSDOF 5
ENDMDL
MODEL 8
REMARK VINA RESULT:      -9.7      2.037      3.357
REMARK  Name = Fragment
REMARK  5 active torsions:
REMARK  status: ('A' for Active; 'I' for Inactive)
REMARK    1  A    between atoms: C_4  and  O_25
REMARK    2  A    between atoms: C_5  and  C_7
REMARK    3  A    between atoms: C_7  and  C_8
REMARK    4  A    between atoms: C_9  and  C_10
REMARK    5  A    between atoms: C_13  and  C_18
REMARK                            x       y       z     vdW  Elec       q    Type
REMARK                         _______ _______ _______ _____ _____    ______ ____
ROOT
ATOM      8  C   UNL     1     -17.481 -42.832  24.498  0.00  0.00    +0.000 C 
ATOM      9  C   UNL     1     -16.430 -42.557  25.301  0.00  0.00    +0.000 C 
ENDROOT
BRANCH   9  10
ATOM     10  C   UNL     1     -15.501 -43.417  25.779  0.00  0.00    +0.000 A 
ATOM     11  C   UNL     1     -15.271 -43.455  27.108  0.00  0.00    +0.000 A 
ATOM     12  C   UNL     1     -14.364 -44.280  27.653  0.00  0.00    +0.000 A 
ATOM     13  C   UNL     1     -13.620 -45.099  26.891  0.00  0.00    +0.000 A 
ATOM     14  C   UNL     1     -13.866 -45.094  25.571  0.00  0.00    +0.000 A 
ATOM     15  C   UNL     1     -14.774 -44.267  25.027  0.00  0.00    +0.000 A 
BRANCH  13  17
ATOM     17  C   UNL     1     -12.640 -46.073  27.505  0.00  0.00    +0.000 C 
ATOM     18  F   UNL     1     -13.082 -46.596  28.639  0.00  0.00    +0.000 F 
ATOM     19  F   UNL     1     -12.342 -47.074  26.692  0.00  0.00    +0.000 F 
ATOM     20  F   UNL     1     -11.509 -45.441  27.779  0.00  0.00    +0.000 F 
ENDBRANCH  13  17
ENDBRANCH   9  10
BRANCH   8   7
ATOM      7  C   UNL     1     -18.387 -41.903  24.054  0.00  0.00    +0.000 C 
ATOM     16  O   UNL     1     -18.173 -41.398  22.971  0.00  0.00    +0.000 OA
BRANCH   7   5
ATOM      1  C   UNL     1     -20.584 -41.295  26.883  0.00  0.00    +0.000 A 
ATOM      2  C   UNL     1     -21.694 -40.855  26.287  0.00  0.00    +0.000 A 
ATOM      3  C   UNL     1     -21.696 -40.763  24.953  0.00  0.00    +0.000 A 
ATOM      4  C   UNL     1     -20.639 -41.102  24.188  0.00  0.00    +0.000 A 
ATOM      5  C   UNL     1     -19.498 -41.546  24.788  0.00  0.00    +0.000 A 
ATOM      6  C   UNL     1     -19.520 -41.628  26.138  0.00  0.00    +0.000 A 
BRANCH   4  21
ATOM     21  O   UNL     1     -20.824 -40.921  22.846  0.00  0.00    +0.000 OA
ATOM     22  H   UNL     1     -21.061 -40.027  22.574  0.00  0.00    +0.000 HD
ENDBRANCH   4  21
ENDBRANCH   7   5
ENDBRANCH   8   7
TORSDOF 5
ENDMDL
MODEL 9
REMARK VINA RESULT:      -8.6      3.623      5.772
REMARK  Name = Fragment
REMARK  5 active torsions:
REMARK  status: ('A' for Active; 'I' for Inactive)
REMARK    1  A    between atoms: C_4  and  O_25
REMARK    2  A    between atoms: C_5  and  C_7
REMARK    3  A    between atoms: C_7  and  C_8
REMARK    4  A    between atoms: C_9  and  C_10
REMARK    5  A    between atoms: C_13  and  C_18
REMARK                            x       y       z     vdW  Elec       q    Type
REMARK                         _______ _______ _______ _____ _____    ______ ____
ROOT
ATOM      8  C   UNL     1     -19.284 -41.130  23.457  0.00  0.00    +0.000 C 
ATOM      9  C   UNL     1     -18.319 -42.037  23.196  0.00  0.00    +0.000 C 
ENDROOT
BRANCH   9  10
ATOM     10  C   UNL     1     -17.367 -42.504  24.037  0.00  0.00    +0.000 A 
ATOM     11  C   UNL     1     -16.245 -43.043  23.516  0.00  0.00    +0.000 A 
ATOM     12  C   UNL     1     -15.260 -43.527  24.288  0.00  0.00    +0.000 A 
ATOM     13  C   UNL     1     -15.356 -43.517  25.629  0.00  0.00    +0.000 A 
ATOM     14  C   UNL     1     -16.453 -42.951  26.157  0.00  0.00    +0.000 A 
ATOM     15  C   UNL     1     -17.437 -42.467  25.383  0.00  0.00    +0.000 A 
BRANCH  13  17
ATOM     17  C   UNL     1     -14.223 -44.006  26.503  0.00  0.00    +0.000 C 
ATOM     18  F   UNL     1     -13.775 -45.198  26.140  0.00  0.00    +0.000 F 
ATOM     19  F   UNL     1     -13.193 -43.175  26.511  0.00  0.00    +0.000 F 
ATOM     20  F   UNL     1     -14.650 -44.112  27.752  0.00  0.00    +0.000 F 
ENDBRANCH  13  17
ENDBRANCH   9  10
BRANCH   8   7
ATOM      7  C   UNL     1     -20.217 -40.701  22.547  0.00  0.00    +0.000 C 
ATOM     16  O   UNL     1     -20.457 -39.512  22.520  0.00  0.00    +0.000 OA
BRANCH   7   5
ATOM      1  C   UNL     1     -22.379 -43.359  21.336  0.00  0.00    +0.000 A 
ATOM      2  C   UNL     1     -22.166 -43.316  20.019  0.00  0.00    +0.000 A 
ATOM      3  C   UNL     1     -21.309 -42.402  19.552  0.00  0.00    +0.000 A 
ATOM      4  C   UNL     1     -20.648 -41.535  20.344  0.00  0.00    +0.000 A 
ATOM      5  C   UNL     1     -20.864 -41.567  21.690  0.00  0.00    +0.000 A 
ATOM      6  C   UNL     1     -21.737 -42.498  22.139  0.00  0.00    +0.000 A 
BRANCH   4  21
ATOM     21  O   UNL     1     -19.831 -40.664  19.681  0.00  0.00    +0.000 OA
ATOM     22  H   UNL     1     -19.562 -39.883  20.178  0.00  0.00    +0.000 HD
ENDBRANCH   4  21
ENDBRANCH   7   5
ENDBRANCH   8   7
TORSDOF 5
ENDMDL
MODEL 10
REMARK VINA RESULT:      -8.6      3.722      5.617
REMARK  Name = Fragment
REMARK  5 active torsions:
REMARK  status: ('A' for Active; 'I' for Inactive)
REMARK    1  A    between atoms: C_4  and  O_25
REMARK    2  A    between atoms: C_5  and  C_7
REMARK    3  A    between atoms: C_7  and  C_8
REMARK    4  A    between atoms: C_9  and  C_10
REMARK    5  A    between atoms: C_13  and  C_18
REMARK                            x       y       z     vdW  Elec       q    Type
REMARK                         _______ _______ _______ _____ _____    ______ ____
ROOT
ATOM      8  C   UNL     1     -18.706 -41.105  23.004  0.00  0.00    +0.000 C 
ATOM      9  C   UNL     1     -17.628 -41.901  22.840  0.00  0.00    +0.000 C 
ENDROOT
BRANCH   9  10
ATOM     10  C   UNL     1     -16.851 -42.458  23.798  0.00  0.00    +0.000 A 
ATOM     11  C   UNL     1     -15.711 -43.081  23.432  0.00  0.00    +0.000 A 
ATOM     12  C   UNL     1     -14.893 -43.656  24.326  0.00  0.00    +0.000 A 
ATOM     13  C   UNL     1     -15.184 -43.659  25.638  0.00  0.00    +0.000 A 
ATOM     14  C   UNL     1     -16.298 -43.011  26.016  0.00  0.00    +0.000 A 
ATOM     15  C   UNL     1     -17.116 -42.435  25.119  0.00  0.00    +0.000 A 
BRANCH  13  17
ATOM     17  C   UNL     1     -14.236 -44.253  26.655  0.00  0.00    +0.000 C 
ATOM     18  F   UNL     1     -14.768 -44.333  27.865  0.00  0.00    +0.000 F 
ATOM     19  F   UNL     1     -13.825 -45.465  26.317  0.00  0.00    +0.000 F 
ATOM     20  F   UNL     1     -13.160 -43.487  26.749  0.00  0.00    +0.000 F 
ENDBRANCH  13  17
ENDBRANCH   9  10
BRANCH   8   7
ATOM      7  C   UNL     1     -19.445 -40.573  21.978  0.00  0.00    +0.000 C 
ATOM     16  O   UNL     1     -18.864 -40.354  20.935  0.00  0.00    +0.000 OA
BRANCH   7   5
ATOM      1  C   UNL     1     -22.970 -40.949  22.778  0.00  0.00    +0.000 A 
ATOM      2  C   UNL     1     -23.477 -39.785  22.366  0.00  0.00    +0.000 A 
ATOM      3  C   UNL     1     -22.639 -38.890  21.832  0.00  0.00    +0.000 A 
ATOM      4  C   UNL     1     -21.318 -39.112  21.682  0.00  0.00    +0.000 A 
ATOM      5  C   UNL     1     -20.790 -40.295  22.105  0.00  0.00    +0.000 A 
ATOM      6  C   UNL     1     -21.656 -41.184  22.644  0.00  0.00    +0.000 A 
BRANCH   4  21
ATOM     21  O   UNL     1     -20.623 -38.071  21.133  0.00  0.00    +0.000 OA
ATOM     22  H   UNL     1     -20.314 -37.402  21.755  0.00  0.00    +0.000 HD
ENDBRANCH   4  21
ENDBRANCH   7   5
ENDBRANCH   8   7
TORSDOF 5
ENDMDL
