MODEL 1
REMARK VINA RESULT:      -8.8      0.000      0.000
REMARK  Name = Fragment
REMARK  1 active torsions:
REMARK  status: ('A' for Active; 'I' for Inactive)
REMARK    1  A    between atoms: C_7  and  N_15
REMARK                            x       y       z     vdW  Elec       q    Type
REMARK                         _______ _______ _______ _____ _____    ______ ____
ROOT
ATOM      1  C   UNL     1     -14.453 -44.091  25.945  0.00  0.00    +0.000 C 
ATOM      2  C   UNL     1     -14.250 -43.447  24.572  0.00  0.00    +0.000 C 
ATOM      3  C   UNL     1     -15.590 -43.387  23.828  0.00  0.00    +0.000 C 
ATOM      4  C   UNL     1     -16.742 -42.883  24.675  0.00  0.00    +0.000 A 
ATOM      5  C   UNL     1     -16.625 -42.798  26.013  0.00  0.00    +0.000 A 
ATOM      6  C   UNL     1     -15.380 -43.193  26.772  0.00  0.00    +0.000 C 
ATOM      7  C   UNL     1     -17.917 -42.513  24.128  0.00  0.00    +0.000 A 
ATOM      8  C   UNL     1     -18.906 -42.066  24.928  0.00  0.00    +0.000 A 
ATOM      9  C   UNL     1     -18.670 -42.018  26.256  0.00  0.00    +0.000 A 
ATOM     10  N   UNL     1     -17.563 -42.379  26.753  0.00  0.00    +0.000 NA
ATOM     11  C   UNL     1     -20.112 -41.667  24.479  0.00  0.00    +0.000 A 
ATOM     12  C   UNL     1     -21.061 -41.232  25.322  0.00  0.00    +0.000 A 
ATOM     13  C   UNL     1     -20.818 -41.187  26.639  0.00  0.00    +0.000 A 
ATOM     14  C   UNL     1     -19.623 -41.582  27.100  0.00  0.00    +0.000 A 
ENDROOT
BRANCH   7  15
ATOM     15  N   UNL     1     -18.073 -42.595  22.872  0.00  0.00    +0.000 N 
ATOM     16  H   UNL     1     -17.316 -42.953  22.245  0.00  0.00    +0.000 HD
ATOM     17  H   UNL     1     -18.967 -42.299  22.411  0.00  0.00    +0.000 HD
ENDBRANCH   7  15
TORSDOF 1
ENDMDL
MODEL 2
REMARK VINA RESULT:      -8.7      0.725      2.473
REMARK  Name = Fragment
REMARK  1 active torsions:
REMARK  status: ('A' for Active; 'I' for Inactive)
REMARK    1  A    between atoms: C_7  and  N_15
REMARK                            x       y       z     vdW  Elec       q    Type
REMARK                         _______ _______ _______ _____ _____    ______ ____
ROOT
ATOM      1  C   UNL     1     -14.190 -43.210  24.580  0.00  0.00    +0.000 C 
ATOM      2  C   UNL     1     -14.279 -44.068  25.844  0.00  0.00    +0.000 C 
ATOM      3  C   UNL     1     -15.195 -43.384  26.867  0.00  0.00    +0.000 C 
ATOM      4  C   UNL     1     -16.493 -42.864  26.279  0.00  0.00    +0.000 A 
ATOM      5  C   UNL     1     -16.651 -42.761  24.946  0.00  0.00    +0.000 A 
ATOM      6  C   UNL     1     -15.582 -43.131  23.945  0.00  0.00    +0.000 C 
ATOM      7  C   UNL     1     -17.523 -42.482  27.059  0.00  0.00    +0.000 A 
ATOM      8  C   UNL     1     -18.656 -42.033  26.483  0.00  0.00    +0.000 A 
ATOM      9  C   UNL     1     -18.701 -41.980  25.136  0.00  0.00    +0.000 A 
ATOM     10  N   UNL     1     -17.720 -42.334  24.419  0.00  0.00    +0.000 NA
ATOM     11  C   UNL     1     -19.742 -41.634  27.175  0.00  0.00    +0.000 A 
ATOM     12  C   UNL     1     -20.844 -41.195  26.549  0.00  0.00    +0.000 A 
ATOM     13  C   UNL     1     -20.880 -41.146  25.210  0.00  0.00    +0.000 A 
ATOM     14  C   UNL     1     -19.807 -41.538  24.509  0.00  0.00    +0.000 A 
ENDROOT
BRANCH   7  15
ATOM     15  N   UNL     1     -17.407 -42.548  28.321  0.00  0.00    +0.000 N 
ATOM     16  H   UNL     1     -18.190 -42.886  28.928  0.00  0.00    +0.000 HD
ATOM     17  H   UNL     1     -16.525 -42.259  28.807  0.00  0.00    +0.000 HD
ENDBRANCH   7  15
TORSDOF 1
ENDMDL
MODEL 3
REMARK VINA RESULT:      -8.5      0.314      4.565
REMARK  Name = Fragment
REMARK  1 active torsions:
REMARK  status: ('A' for Active; 'I' for Inactive)
REMARK    1  A    between atoms: C_7  and  N_15
REMARK                            x       y       z     vdW  Elec       q    Type
REMARK                         _______ _______ _______ _____ _____    ______ ____
ROOT
ATOM      1  C   UNL     1     -20.889 -41.006  26.516  0.00  0.00    +0.000 C 
ATOM      2  C   UNL     1     -21.380 -41.855  25.341  0.00  0.00    +0.000 C 
ATOM      3  C   UNL     1     -20.278 -41.950  24.279  0.00  0.00    +0.000 C 
ATOM      4  C   UNL     1     -18.905 -42.261  24.843  0.00  0.00    +0.000 A 
ATOM      5  C   UNL     1     -18.664 -42.155  26.163  0.00  0.00    +0.000 A 
ATOM      6  C   UNL     1     -19.702 -41.720  27.171  0.00  0.00    +0.000 C 
ATOM      7  C   UNL     1     -17.882 -42.642  24.053  0.00  0.00    +0.000 A 
ATOM      8  C   UNL     1     -16.683 -42.912  24.608  0.00  0.00    +0.000 A 
ATOM      9  C   UNL     1     -16.563 -42.777  25.945  0.00  0.00    +0.000 A 
ATOM     10  N   UNL     1     -17.532 -42.408  26.671  0.00  0.00    +0.000 NA
ATOM     11  C   UNL     1     -15.603 -43.306  23.906  0.00  0.00    +0.000 A 
ATOM     12  C   UNL     1     -14.433 -43.561  24.512  0.00  0.00    +0.000 A 
ATOM     13  C   UNL     1     -14.322 -43.424  25.841  0.00  0.00    +0.000 A 
ATOM     14  C   UNL     1     -15.389 -43.032  26.551  0.00  0.00    +0.000 A 
ENDROOT
BRANCH   7  15
ATOM     15  N   UNL     1     -18.063 -42.738  22.801  0.00  0.00    +0.000 N 
ATOM     16  H   UNL     1     -18.695 -42.082  22.284  0.00  0.00    +0.000 HD
ATOM     17  H   UNL     1     -17.592 -43.483  22.234  0.00  0.00    +0.000 HD
ENDBRANCH   7  15
TORSDOF 1
ENDMDL
MODEL 4
REMARK VINA RESULT:      -8.5      5.298      7.903
REMARK  Name = Fragment
REMARK  1 active torsions:
REMARK  status: ('A' for Active; 'I' for Inactive)
REMARK    1  A    between atoms: C_7  and  N_15
REMARK                            x       y       z     vdW  Elec       q    Type
REMARK                         _______ _______ _______ _____ _____    ______ ____
ROOT
ATOM      1  C   UNL     1      -8.792 -44.828  31.379  0.00  0.00    +0.000 C 
ATOM      2  C   UNL     1      -9.296 -46.273  31.425  0.00  0.00    +0.000 C 
ATOM      3  C   UNL     1     -10.814 -46.296  31.201  0.00  0.00    +0.000 C 
ATOM      4  C   UNL     1     -11.279 -45.427  30.048  0.00  0.00    +0.000 A 
ATOM      5  C   UNL     1     -10.455 -44.513  29.501  0.00  0.00    +0.000 A 
ATOM      6  C   UNL     1      -9.041 -44.269  29.975  0.00  0.00    +0.000 C 
ATOM      7  C   UNL     1     -12.522 -45.528  29.538  0.00  0.00    +0.000 A 
ATOM      8  C   UNL     1     -12.880 -44.735  28.508  0.00  0.00    +0.000 A 
ATOM      9  C   UNL     1     -11.966 -43.860  28.038  0.00  0.00    +0.000 A 
ATOM     10  N   UNL     1     -10.806 -43.772  28.536  0.00  0.00    +0.000 NA
ATOM     11  C   UNL     1     -14.095 -44.764  27.927  0.00  0.00    +0.000 A 
ATOM     12  C   UNL     1     -14.398 -43.950  26.904  0.00  0.00    +0.000 A 
ATOM     13  C   UNL     1     -13.483 -43.085  26.442  0.00  0.00    +0.000 A 
ATOM     14  C   UNL     1     -12.272 -43.044  27.013  0.00  0.00    +0.000 A 
ENDROOT
BRANCH   7  15
ATOM     15  N   UNL     1     -13.334 -46.365  30.037  0.00  0.00    +0.000 N 
ATOM     16  H   UNL     1     -13.649 -46.300  31.033  0.00  0.00    +0.000 HD
ATOM     17  H   UNL     1     -13.717 -47.161  29.473  0.00  0.00    +0.000 HD
ENDBRANCH   7  15
TORSDOF 1
ENDMDL
MODEL 5
REMARK VINA RESULT:      -8.4      0.723      5.169
REMARK  Name = Fragment
REMARK  1 active torsions:
REMARK  status: ('A' for Active; 'I' for Inactive)
REMARK    1  A    between atoms: C_7  and  N_15
REMARK                            x       y       z     vdW  Elec       q    Type
REMARK                         _______ _______ _______ _____ _____    ______ ____
ROOT
ATOM      1  C   UNL     1     -21.168 -41.766  25.064  0.00  0.00    +0.000 C 
ATOM      2  C   UNL     1     -20.935 -41.001  26.369  0.00  0.00    +0.000 C 
ATOM      3  C   UNL     1     -19.850 -41.707  27.193  0.00  0.00    +0.000 C 
ATOM      4  C   UNL     1     -18.629 -42.107  26.387  0.00  0.00    +0.000 A 
ATOM      5  C   UNL     1     -18.661 -42.101  25.041  0.00  0.00    +0.000 A 
ATOM      6  C   UNL     1     -19.880 -41.718  24.235  0.00  0.00    +0.000 C 
ATOM      7  C   UNL     1     -17.481 -42.489  26.980  0.00  0.00    +0.000 A 
ATOM      8  C   UNL     1     -16.423 -42.828  26.215  0.00  0.00    +0.000 A 
ATOM      9  C   UNL     1     -16.572 -42.777  24.875  0.00  0.00    +0.000 A 
ATOM     10  N   UNL     1     -17.662 -42.426  24.335  0.00  0.00    +0.000 NA
ATOM     11  C   UNL     1     -15.232 -43.216  26.711  0.00  0.00    +0.000 A 
ATOM     12  C   UNL     1     -14.214 -43.544  25.901  0.00  0.00    +0.000 A 
ATOM     13  C   UNL     1     -14.370 -43.489  24.571  0.00  0.00    +0.000 A 
ATOM     14  C   UNL     1     -15.550 -43.107  24.064  0.00  0.00    +0.000 A 
ENDROOT
BRANCH   7  15
ATOM     15  N   UNL     1     -17.415 -42.525  28.246  0.00  0.00    +0.000 N 
ATOM     16  H   UNL     1     -17.274 -43.423  28.765  0.00  0.00    +0.000 HD
ATOM     17  H   UNL     1     -17.506 -41.656  28.825  0.00  0.00    +0.000 HD
ENDBRANCH   7  15
TORSDOF 1
ENDMDL
MODEL 6
REMARK VINA RESULT:      -8.0      7.529      8.594
REMARK  Name = Fragment
REMARK  1 active torsions:
REMARK  status: ('A' for Active; 'I' for Inactive)
REMARK    1  A    between atoms: C_7  and  N_15
REMARK                            x       y       z     vdW  Elec       q    Type
REMARK                         _______ _______ _______ _____ _____    ______ ____
ROOT
ATOM      1  C   UNL     1     -10.004 -46.668  28.843  0.00  0.00    +0.000 C 
ATOM      2  C   UNL     1     -11.243 -46.441  27.974  0.00  0.00    +0.000 C 
ATOM      3  C   UNL     1     -12.470 -46.234  28.872  0.00  0.00    +0.000 C 
ATOM      4  C   UNL     1     -12.236 -45.276  30.023  0.00  0.00    +0.000 A 
ATOM      5  C   UNL     1     -10.987 -44.904  30.365  0.00  0.00    +0.000 A 
ATOM      6  C   UNL     1      -9.744 -45.400  29.663  0.00  0.00    +0.000 C 
ATOM      7  C   UNL     1     -13.254 -44.770  30.746  0.00  0.00    +0.000 A 
ATOM      8  C   UNL     1     -12.988 -43.917  31.756  0.00  0.00    +0.000 A 
ATOM      9  C   UNL     1     -11.697 -43.613  32.001  0.00  0.00    +0.000 A 
ATOM     10  N   UNL     1     -10.752 -44.105  31.318  0.00  0.00    +0.000 NA
ATOM     11  C   UNL     1     -13.936 -43.354  32.531  0.00  0.00    +0.000 A 
ATOM     12  C   UNL     1     -13.614 -42.511  33.524  0.00  0.00    +0.000 A 
ATOM     13  C   UNL     1     -12.328 -42.214  33.761  0.00  0.00    +0.000 A 
ATOM     14  C   UNL     1     -11.375 -42.768  32.998  0.00  0.00    +0.000 A 
ENDROOT
BRANCH   7  15
ATOM     15  N   UNL     1     -14.445 -45.109  30.467  0.00  0.00    +0.000 N 
ATOM     16  H   UNL     1     -14.697 -45.519  29.538  0.00  0.00    +0.000 HD
ATOM     17  H   UNL     1     -15.226 -44.984  31.155  0.00  0.00    +0.000 HD
ENDBRANCH   7  15
TORSDOF 1
ENDMDL
MODEL 7
REMARK VINA RESULT:      -7.8      2.186      5.046
REMARK  Name = Fragment
REMARK  1 active torsions:
REMARK  status: ('A' for Active; 'I' for Inactive)
REMARK    1  A    between atoms: C_7  and  N_15
REMARK                            x       y       z     vdW  Elec       q    Type
REMARK                         _______ _______ _______ _____ _____    ______ ____
ROOT
ATOM      1  C   UNL     1     -21.202 -40.217  22.425  0.00  0.00    +0.000 C 
ATOM      2  C   UNL     1     -20.585 -40.403  21.036  0.00  0.00    +0.000 C 
ATOM      3  C   UNL     1     -19.066 -40.206  21.116  0.00  0.00    +0.000 C 
ATOM      4  C   UNL     1     -18.412 -40.931  22.277  0.00  0.00    +0.000 A 
ATOM      5  C   UNL     1     -19.156 -41.432  23.281  0.00  0.00    +0.000 A 
ATOM      6  C   UNL     1     -20.661 -41.313  23.349  0.00  0.00    +0.000 C 
ATOM      7  C   UNL     1     -17.077 -41.093  22.351  0.00  0.00    +0.000 A 
ATOM      8  C   UNL     1     -16.549 -41.752  23.403  0.00  0.00    +0.000 A 
ATOM      9  C   UNL     1     -17.395 -42.216  24.346  0.00  0.00    +0.000 A 
ATOM     10  N   UNL     1     -18.647 -42.045  24.264  0.00  0.00    +0.000 NA
ATOM     11  C   UNL     1     -15.229 -41.971  23.565  0.00  0.00    +0.000 A 
ATOM     12  C   UNL     1     -14.759 -42.633  24.634  0.00  0.00    +0.000 A 
ATOM     13  C   UNL     1     -15.607 -43.091  25.565  0.00  0.00    +0.000 A 
ATOM     14  C   UNL     1     -16.922 -42.878  25.417  0.00  0.00    +0.000 A 
ENDROOT
BRANCH   7  15
ATOM     15  N   UNL     1     -16.339 -40.621  21.434  0.00  0.00    +0.000 N 
ATOM     16  H   UNL     1     -16.465 -40.894  20.431  0.00  0.00    +0.000 HD
ATOM     17  H   UNL     1     -15.568 -39.943  21.644  0.00  0.00    +0.000 HD
ENDBRANCH   7  15
TORSDOF 1
ENDMDL
MODEL 8
REMARK VINA RESULT:      -7.7     22.853     24.909
REMARK  Name = Fragment
REMARK  1 active torsions:
REMARK  status: ('A' for Active; 'I' for Inactive)
REMARK    1  A    between atoms: C_7  and  N_15
REMARK                            x       y       z     vdW  Elec       q    Type
REMARK                         _______ _______ _______ _____ _____    ______ ____
ROOT
ATOM      1  C   UNL     1       0.788 -58.606  19.761  0.00  0.00    +0.000 C 
ATOM      2  C   UNL     1       2.251 -59.039  19.884  0.00  0.00    +0.000 C 
ATOM      3  C   UNL     1       3.151 -58.024  19.168  0.00  0.00    +0.000 C 
ATOM      4  C   UNL     1       2.819 -56.578  19.484  0.00  0.00    +0.000 A 
ATOM      5  C   UNL     1       1.660 -56.255  20.089  0.00  0.00    +0.000 A 
ATOM      6  C   UNL     1       0.613 -57.269  20.488  0.00  0.00    +0.000 C 
ATOM      7  C   UNL     1       3.656 -55.571  19.166  0.00  0.00    +0.000 A 
ATOM      8  C   UNL     1       3.313 -54.304  19.476  0.00  0.00    +0.000 A 
ATOM      9  C   UNL     1       2.128 -54.103  20.089  0.00  0.00    +0.000 A 
ATOM     10  N   UNL     1       1.350 -55.061  20.371  0.00  0.00    +0.000 NA
ATOM     11  C   UNL     1       4.083 -53.232  19.207  0.00  0.00    +0.000 A 
ATOM     12  C   UNL     1       3.691 -51.992  19.537  0.00  0.00    +0.000 A 
ATOM     13  C   UNL     1       2.513 -51.802  20.147  0.00  0.00    +0.000 A 
ATOM     14  C   UNL     1       1.736 -52.859  20.419  0.00  0.00    +0.000 A 
ENDROOT
BRANCH   7  15
ATOM     15  N   UNL     1       4.750 -55.832  18.579  0.00  0.00    +0.000 N 
ATOM     16  H   UNL     1       4.777 -56.168  17.588  0.00  0.00    +0.000 HD
ATOM     17  H   UNL     1       5.672 -55.728  19.067  0.00  0.00    +0.000 HD
ENDBRANCH   7  15
TORSDOF 1
ENDMDL
MODEL 9
REMARK VINA RESULT:      -7.7     23.121     25.402
REMARK  Name = Fragment
REMARK  1 active torsions:
REMARK  status: ('A' for Active; 'I' for Inactive)
REMARK    1  A    between atoms: C_7  and  N_15
REMARK                            x       y       z     vdW  Elec       q    Type
REMARK                         _______ _______ _______ _____ _____    ______ ____
ROOT
ATOM      1  C   UNL     1       4.384 -59.035  19.562  0.00  0.00    +0.000 C 
ATOM      2  C   UNL     1       2.871 -59.255  19.486  0.00  0.00    +0.000 C 
ATOM      3  C   UNL     1       2.151 -58.159  20.283  0.00  0.00    +0.000 C 
ATOM      4  C   UNL     1       2.671 -56.761  20.015  0.00  0.00    +0.000 A 
ATOM      5  C   UNL     1       3.840 -56.573  19.372  0.00  0.00    +0.000 A 
ATOM      6  C   UNL     1       4.718 -57.702  18.885  0.00  0.00    +0.000 C 
ATOM      7  C   UNL     1       1.997 -55.663  20.411  0.00  0.00    +0.000 A 
ATOM      8  C   UNL     1       2.503 -54.443  20.140  0.00  0.00    +0.000 A 
ATOM      9  C   UNL     1       3.680 -54.380  19.484  0.00  0.00    +0.000 A 
ATOM     10  N   UNL     1       4.304 -55.422  19.128  0.00  0.00    +0.000 NA
ATOM     11  C   UNL     1       1.902 -53.288  20.488  0.00  0.00    +0.000 A 
ATOM     12  C   UNL     1       2.453 -52.100  20.193  0.00  0.00    +0.000 A 
ATOM     13  C   UNL     1       3.622 -52.047  19.540  0.00  0.00    +0.000 A 
ATOM     14  C   UNL     1       4.231 -53.188  19.189  0.00  0.00    +0.000 A 
ENDROOT
BRANCH   7  15
ATOM     15  N   UNL     1       0.900 -55.797  21.035  0.00  0.00    +0.000 N 
ATOM     16  H   UNL     1       0.181 -56.498  20.740  0.00  0.00    +0.000 HD
ATOM     17  H   UNL     1       0.667 -55.204  21.867  0.00  0.00    +0.000 HD
ENDBRANCH   7  15
TORSDOF 1
ENDMDL
MODEL 10
REMARK VINA RESULT:      -7.4      1.567      4.705
REMARK  Name = Fragment
REMARK  1 active torsions:
REMARK  status: ('A' for Active; 'I' for Inactive)
REMARK    1  A    between atoms: C_7  and  N_15
REMARK                            x       y       z     vdW  Elec       q    Type
REMARK                         _______ _______ _______ _____ _____    ______ ____
ROOT
ATOM      1  C   UNL     1     -20.307 -41.779  22.171  0.00  0.00    +0.000 C 
ATOM      2  C   UNL     1     -21.019 -40.703  22.995  0.00  0.00    +0.000 C 
ATOM      3  C   UNL     1     -21.024 -41.107  24.475  0.00  0.00    +0.000 C 
ATOM      4  C   UNL     1     -19.685 -41.606  24.981  0.00  0.00    +0.000 A 
ATOM      5  C   UNL     1     -18.703 -41.933  24.120  0.00  0.00    +0.000 A 
ATOM      6  C   UNL     1     -18.843 -41.846  22.618  0.00  0.00    +0.000 C 
ATOM      7  C   UNL     1     -19.431 -41.748  26.296  0.00  0.00    +0.000 A 
ATOM      8  C   UNL     1     -18.219 -42.190  26.691  0.00  0.00    +0.000 A 
ATOM      9  C   UNL     1     -17.311 -42.480  25.736  0.00  0.00    +0.000 A 
ATOM     10  N   UNL     1     -17.571 -42.350  24.504  0.00  0.00    +0.000 NA
ATOM     11  C   UNL     1     -17.867 -42.359  27.981  0.00  0.00    +0.000 A 
ATOM     12  C   UNL     1     -16.646 -42.803  28.317  0.00  0.00    +0.000 A 
ATOM     13  C   UNL     1     -15.750 -43.088  27.361  0.00  0.00    +0.000 A 
ATOM     14  C   UNL     1     -16.088 -42.926  26.075  0.00  0.00    +0.000 A 
ENDROOT
BRANCH   7  15
ATOM     15  N   UNL     1     -20.336 -41.468  27.140  0.00  0.00    +0.000 N 
ATOM     16  H   UNL     1     -21.328 -41.306  26.850  0.00  0.00    +0.000 HD
ATOM     17  H   UNL     1     -20.123 -41.379  28.163  0.00  0.00    +0.000 HD
ENDBRANCH   7  15
TORSDOF 1
ENDMDL
