MODEL 1
REMARK VINA RESULT:      -9.7      0.000      0.000
REMARK  Name = Fragment
REMARK  6 active torsions:
REMARK  status: ('A' for Active; 'I' for Inactive)
REMARK    1  A    between atoms: C_1  and  C_2
REMARK    2  A    between atoms: C_2  and  C_4
REMARK    3  A    between atoms: C_5  and  O_19
REMARK    4  A    between atoms: C_10  and  C_11
REMARK    5  A    between atoms: C_14  and  O_17
REMARK    6  A    between atoms: O_17  and  C_18
REMARK                            x       y       z     vdW  Elec       q    Type
REMARK                         _______ _______ _______ _____ _____    ______ ____
ROOT
ATOM      1  C   UNL     1     -14.394 -43.573  26.300  0.00  0.00    +0.000 C 
ATOM     10  C   UNL     1     -13.996 -44.837  26.561  0.00  0.00    +0.000 C 
ENDROOT
BRANCH  10  11
ATOM     11  C   UNL     1     -13.297 -45.285  27.628  0.00  0.00    +0.000 A 
ATOM     12  C   UNL     1     -13.725 -44.976  28.869  0.00  0.00    +0.000 A 
ATOM     13  C   UNL     1     -13.076 -45.391  29.967  0.00  0.00    +0.000 A 
ATOM     14  C   UNL     1     -11.959 -46.139  29.912  0.00  0.00    +0.000 A 
ATOM     15  C   UNL     1     -11.534 -46.447  28.671  0.00  0.00    +0.000 A 
ATOM     16  C   UNL     1     -12.180 -46.035  27.566  0.00  0.00    +0.000 A 
BRANCH  14  17
ATOM     17  O   UNL     1     -11.355 -46.522  31.085  0.00  0.00    +0.000 OA
ATOM     18  C   UNL     1     -10.049 -46.066  31.354  0.00  0.00    +0.000 C 
ENDBRANCH  14  17
ENDBRANCH  10  11
BRANCH   1   2
ATOM      2  C   UNL     1     -15.104 -43.188  25.192  0.00  0.00    +0.000 C 
ATOM      3  O   UNL     1     -14.495 -43.140  24.140  0.00  0.00    +0.000 OA
BRANCH   2   4
ATOM      4  C   UNL     1     -16.444 -42.870  25.262  0.00  0.00    +0.000 A 
ATOM      5  C   UNL     1     -17.221 -42.852  24.145  0.00  0.00    +0.000 A 
ATOM      6  C   UNL     1     -18.528 -42.538  24.243  0.00  0.00    +0.000 A 
ATOM      7  C   UNL     1     -19.113 -42.235  25.407  0.00  0.00    +0.000 A 
ATOM      8  C   UNL     1     -18.362 -42.249  26.511  0.00  0.00    +0.000 A 
ATOM      9  C   UNL     1     -17.060 -42.560  26.427  0.00  0.00    +0.000 A 
BRANCH   5  19
ATOM     19  O   UNL     1     -16.777 -43.135  22.886  0.00  0.00    +0.000 OA
ATOM     20  H   UNL     1     -17.199 -43.951  22.569  0.00  0.00    +0.000 HD
ENDBRANCH   5  19
ENDBRANCH   2   4
ENDBRANCH   1   2
TORSDOF 5
ENDMDL
MODEL 2
REMARK VINA RESULT:      -9.6      1.645      7.807
REMARK  Name = Fragment
REMARK  6 active torsions:
REMARK  status: ('A' for Active; 'I' for Inactive)
REMARK    1  A    between atoms: C_1  and  C_2
REMARK    2  A    between atoms: C_2  and  C_4
REMARK    3  A    between atoms: C_5  and  O_19
REMARK    4  A    between atoms: C_10  and  C_11
REMARK    5  A    between atoms: C_14  and  O_17
REMARK    6  A    between atoms: O_17  and  C_18
REMARK                            x       y       z     vdW  Elec       q    Type
REMARK                         _______ _______ _______ _____ _____    ______ ____
ROOT
ATOM      1  C   UNL     1     -13.259 -45.482  28.908  0.00  0.00    +0.000 C 
ATOM     10  C   UNL     1     -14.235 -44.608  28.581  0.00  0.00    +0.000 C 
ENDROOT
BRANCH  10  11
ATOM     11  C   UNL     1     -14.583 -44.174  27.348  0.00  0.00    +0.000 A 
ATOM     12  C   UNL     1     -14.041 -44.769  26.266  0.00  0.00    +0.000 A 
ATOM     13  C   UNL     1     -14.346 -44.384  25.018  0.00  0.00    +0.000 A 
ATOM     14  C   UNL     1     -15.209 -43.385  24.756  0.00  0.00    +0.000 A 
ATOM     15  C   UNL     1     -15.749 -42.794  25.838  0.00  0.00    +0.000 A 
ATOM     16  C   UNL     1     -15.449 -43.173  27.092  0.00  0.00    +0.000 A 
BRANCH  14  17
ATOM     17  O   UNL     1     -15.466 -43.053  23.447  0.00  0.00    +0.000 OA
ATOM     18  C   UNL     1     -16.558 -42.209  23.165  0.00  0.00    +0.000 C 
ENDBRANCH  14  17
ENDBRANCH  10  11
BRANCH   1   2
ATOM      2  C   UNL     1     -12.959 -45.878  30.186  0.00  0.00    +0.000 C 
ATOM      3  O   UNL     1     -13.781 -46.576  30.751  0.00  0.00    +0.000 OA
BRANCH   2   4
ATOM      4  C   UNL     1     -11.784 -45.507  30.806  0.00  0.00    +0.000 A 
ATOM      5  C   UNL     1     -11.674 -44.310  31.443  0.00  0.00    +0.000 A 
ATOM      6  C   UNL     1     -10.514 -43.973  32.040  0.00  0.00    +0.000 A 
ATOM      7  C   UNL     1      -9.441 -44.772  32.038  0.00  0.00    +0.000 A 
ATOM      8  C   UNL     1      -9.536 -45.950  31.416  0.00  0.00    +0.000 A 
ATOM      9  C   UNL     1     -10.685 -46.297  30.818  0.00  0.00    +0.000 A 
BRANCH   5  19
ATOM     19  O   UNL     1     -12.673 -43.384  31.534  0.00  0.00    +0.000 OA
ATOM     20  H   UNL     1     -12.301 -42.494  31.416  0.00  0.00    +0.000 HD
ENDBRANCH   5  19
ENDBRANCH   2   4
ENDBRANCH   1   2
TORSDOF 5
ENDMDL
MODEL 3
REMARK VINA RESULT:      -9.5      1.820      7.729
REMARK  Name = Fragment
REMARK  6 active torsions:
REMARK  status: ('A' for Active; 'I' for Inactive)
REMARK    1  A    between atoms: C_1  and  C_2
REMARK    2  A    between atoms: C_2  and  C_4
REMARK    3  A    between atoms: C_5  and  O_19
REMARK    4  A    between atoms: C_10  and  C_11
REMARK    5  A    between atoms: C_14  and  O_17
REMARK    6  A    between atoms: O_17  and  C_18
REMARK                            x       y       z     vdW  Elec       q    Type
REMARK                         _______ _______ _______ _____ _____    ______ ____
ROOT
ATOM      1  C   UNL     1     -14.786 -44.226  27.029  0.00  0.00    +0.000 C 
ATOM     10  C   UNL     1     -15.079 -42.979  26.600  0.00  0.00    +0.000 C 
ENDROOT
BRANCH  10  11
ATOM     11  C   UNL     1     -15.691 -42.618  25.449  0.00  0.00    +0.000 A 
ATOM     12  C   UNL     1     -17.033 -42.713  25.362  0.00  0.00    +0.000 A 
ATOM     13  C   UNL     1     -17.698 -42.371  24.249  0.00  0.00    +0.000 A 
ATOM     14  C   UNL     1     -17.080 -41.911  23.146  0.00  0.00    +0.000 A 
ATOM     15  C   UNL     1     -15.739 -41.816  23.236  0.00  0.00    +0.000 A 
ATOM     16  C   UNL     1     -15.066 -42.157  24.348  0.00  0.00    +0.000 A 
BRANCH  14  17
ATOM     17  O   UNL     1     -17.836 -41.582  22.046  0.00  0.00    +0.000 OA
ATOM     18  C   UNL     1     -18.848 -40.613  22.186  0.00  0.00    +0.000 C 
ENDBRANCH  14  17
ENDBRANCH  10  11
BRANCH   1   2
ATOM      2  C   UNL     1     -14.161 -44.520  28.213  0.00  0.00    +0.000 C 
ATOM      3  O   UNL     1     -14.742 -44.201  29.234  0.00  0.00    +0.000 OA
BRANCH   2   4
ATOM      4  C   UNL     1     -12.933 -45.146  28.250  0.00  0.00    +0.000 A 
ATOM      5  C   UNL     1     -11.938 -44.693  29.060  0.00  0.00    +0.000 A 
ATOM      6  C   UNL     1     -10.748 -45.325  29.076  0.00  0.00    +0.000 A 
ATOM      7  C   UNL     1     -10.488 -46.398  28.321  0.00  0.00    +0.000 A 
ATOM      8  C   UNL     1     -11.457 -46.853  27.521  0.00  0.00    +0.000 A 
ATOM      9  C   UNL     1     -12.646 -46.233  27.496  0.00  0.00    +0.000 A 
BRANCH   5  19
ATOM     19  O   UNL     1     -12.042 -43.614  29.889  0.00  0.00    +0.000 OA
ATOM     20  H   UNL     1     -12.564 -42.920  29.452  0.00  0.00    +0.000 HD
ENDBRANCH   5  19
ENDBRANCH   2   4
ENDBRANCH   1   2
TORSDOF 5
ENDMDL
MODEL 4
REMARK VINA RESULT:      -8.9      2.138      7.520
REMARK  Name = Fragment
REMARK  6 active torsions:
REMARK  status: ('A' for Active; 'I' for Inactive)
REMARK    1  A    between atoms: C_1  and  C_2
REMARK    2  A    between atoms: C_2  and  C_4
REMARK    3  A    between atoms: C_5  and  O_19
REMARK    4  A    between atoms: C_10  and  C_11
REMARK    5  A    between atoms: C_14  and  O_17
REMARK    6  A    between atoms: O_17  and  C_18
REMARK                            x       y       z     vdW  Elec       q    Type
REMARK                         _______ _______ _______ _____ _____    ______ ____
ROOT
ATOM      1  C   UNL     1     -15.226 -43.447  26.869  0.00  0.00    +0.000 C 
ATOM     10  C   UNL     1     -16.053 -42.525  26.331  0.00  0.00    +0.000 C 
ENDROOT
BRANCH  10  11
ATOM     11  C   UNL     1     -17.403 -42.559  26.263  0.00  0.00    +0.000 A 
ATOM     12  C   UNL     1     -17.994 -42.829  25.081  0.00  0.00    +0.000 A 
ATOM     13  C   UNL     1     -19.328 -42.877  24.949  0.00  0.00    +0.000 A 
ATOM     14  C   UNL     1     -20.168 -42.661  25.979  0.00  0.00    +0.000 A 
ATOM     15  C   UNL     1     -19.575 -42.394  27.158  0.00  0.00    +0.000 A 
ATOM     16  C   UNL     1     -18.239 -42.344  27.297  0.00  0.00    +0.000 A 
BRANCH  14  17
ATOM     17  O   UNL     1     -21.523 -42.729  25.758  0.00  0.00    +0.000 OA
ATOM     18  C   UNL     1     -22.318 -43.471  26.654  0.00  0.00    +0.000 C 
ENDBRANCH  14  17
ENDBRANCH  10  11
BRANCH   1   2
ATOM      2  C   UNL     1     -13.859 -43.346  26.903  0.00  0.00    +0.000 C 
ATOM      3  O   UNL     1     -13.379 -42.275  26.581  0.00  0.00    +0.000 OA
BRANCH   2   4
ATOM      4  C   UNL     1     -13.061 -44.406  27.283  0.00  0.00    +0.000 A 
ATOM      5  C   UNL     1     -11.995 -44.222  28.107  0.00  0.00    +0.000 A 
ATOM      6  C   UNL     1     -11.233 -45.276  28.462  0.00  0.00    +0.000 A 
ATOM      7  C   UNL     1     -11.477 -46.521  28.036  0.00  0.00    +0.000 A 
ATOM      8  C   UNL     1     -12.521 -46.714  27.226  0.00  0.00    +0.000 A 
ATOM      9  C   UNL     1     -13.287 -45.674  26.866  0.00  0.00    +0.000 A 
BRANCH   5  19
ATOM     19  O   UNL     1     -11.613 -43.020  28.626  0.00  0.00    +0.000 OA
ATOM     20  H   UNL     1     -10.741 -42.776  28.272  0.00  0.00    +0.000 HD
ENDBRANCH   5  19
ENDBRANCH   2   4
ENDBRANCH   1   2
TORSDOF 5
ENDMDL
MODEL 5
REMARK VINA RESULT:      -8.8      2.688      4.240
REMARK  Name = Fragment
REMARK  6 active torsions:
REMARK  status: ('A' for Active; 'I' for Inactive)
REMARK    1  A    between atoms: C_1  and  C_2
REMARK    2  A    between atoms: C_2  and  C_4
REMARK    3  A    between atoms: C_5  and  O_19
REMARK    4  A    between atoms: C_10  and  C_11
REMARK    5  A    between atoms: C_14  and  O_17
REMARK    6  A    between atoms: O_17  and  C_18
REMARK                            x       y       z     vdW  Elec       q    Type
REMARK                         _______ _______ _______ _____ _____    ______ ____
ROOT
ATOM      1  C   UNL     1     -11.862 -45.316  27.965  0.00  0.00    +0.000 C 
ATOM     10  C   UNL     1     -11.345 -46.070  28.959  0.00  0.00    +0.000 C 
ENDROOT
BRANCH  10  11
ATOM     11  C   UNL     1     -10.307 -45.774  29.773  0.00  0.00    +0.000 A 
ATOM     12  C   UNL     1      -9.759 -44.543  29.715  0.00  0.00    +0.000 A 
ATOM     13  C   UNL     1      -8.728 -44.188  30.497  0.00  0.00    +0.000 A 
ATOM     14  C   UNL     1      -8.170 -45.027  31.389  0.00  0.00    +0.000 A 
ATOM     15  C   UNL     1      -8.721 -46.255  31.446  0.00  0.00    +0.000 A 
ATOM     16  C   UNL     1      -9.753 -46.617  30.666  0.00  0.00    +0.000 A 
BRANCH  14  17
ATOM     17  O   UNL     1      -7.116 -44.583  32.151  0.00  0.00    +0.000 OA
ATOM     18  C   UNL     1      -7.230 -43.341  32.806  0.00  0.00    +0.000 C 
ENDBRANCH  14  17
ENDBRANCH  10  11
BRANCH   1   2
ATOM      2  C   UNL     1     -12.921 -45.682  27.175  0.00  0.00    +0.000 C 
ATOM      3  O   UNL     1     -12.969 -46.847  26.826  0.00  0.00    +0.000 OA
BRANCH   2   4
ATOM      4  C   UNL     1     -13.889 -44.776  26.791  0.00  0.00    +0.000 A 
ATOM      5  C   UNL     1     -14.641 -44.119  27.715  0.00  0.00    +0.000 A 
ATOM      6  C   UNL     1     -15.579 -43.240  27.312  0.00  0.00    +0.000 A 
ATOM      7  C   UNL     1     -15.814 -42.974  26.022  0.00  0.00    +0.000 A 
ATOM      8  C   UNL     1     -15.082 -43.612  25.105  0.00  0.00    +0.000 A 
ATOM      9  C   UNL     1     -14.145 -44.490  25.494  0.00  0.00    +0.000 A 
BRANCH   5  19
ATOM     19  O   UNL     1     -14.526 -44.278  29.065  0.00  0.00    +0.000 OA
ATOM     20  H   UNL     1     -13.795 -43.731  29.395  0.00  0.00    +0.000 HD
ENDBRANCH   5  19
ENDBRANCH   2   4
ENDBRANCH   1   2
TORSDOF 5
ENDMDL
MODEL 6
REMARK VINA RESULT:      -8.8      1.509      2.155
REMARK  Name = Fragment
REMARK  6 active torsions:
REMARK  status: ('A' for Active; 'I' for Inactive)
REMARK    1  A    between atoms: C_1  and  C_2
REMARK    2  A    between atoms: C_2  and  C_4
REMARK    3  A    between atoms: C_5  and  O_19
REMARK    4  A    between atoms: C_10  and  C_11
REMARK    5  A    between atoms: C_14  and  O_17
REMARK    6  A    between atoms: O_17  and  C_18
REMARK                            x       y       z     vdW  Elec       q    Type
REMARK                         _______ _______ _______ _____ _____    ______ ____
ROOT
ATOM      1  C   UNL     1     -14.789 -43.351  26.312  0.00  0.00    +0.000 C 
ATOM     10  C   UNL     1     -14.093 -44.503  26.425  0.00  0.00    +0.000 C 
ENDROOT
BRANCH  10  11
ATOM     11  C   UNL     1     -13.048 -44.766  27.242  0.00  0.00    +0.000 A 
ATOM     12  C   UNL     1     -12.718 -46.049  27.493  0.00  0.00    +0.000 A 
ATOM     13  C   UNL     1     -11.693 -46.375  28.294  0.00  0.00    +0.000 A 
ATOM     14  C   UNL     1     -10.924 -45.452  28.901  0.00  0.00    +0.000 A 
ATOM     15  C   UNL     1     -11.255 -44.171  28.648  0.00  0.00    +0.000 A 
ATOM     16  C   UNL     1     -12.281 -43.838  27.846  0.00  0.00    +0.000 A 
BRANCH  14  17
ATOM     17  O   UNL     1      -9.892 -45.870  29.707  0.00  0.00    +0.000 OA
ATOM     18  C   UNL     1     -10.194 -46.365  30.991  0.00  0.00    +0.000 C 
ENDBRANCH  14  17
ENDBRANCH  10  11
BRANCH   1   2
ATOM      2  C   UNL     1     -15.844 -43.154  25.458  0.00  0.00    +0.000 C 
ATOM      3  O   UNL     1     -15.654 -43.413  24.284  0.00  0.00    +0.000 OA
BRANCH   2   4
ATOM      4  C   UNL     1     -17.062 -42.686  25.904  0.00  0.00    +0.000 A 
ATOM      5  C   UNL     1     -17.311 -42.532  27.233  0.00  0.00    +0.000 A 
ATOM      6  C   UNL     1     -18.511 -42.072  27.640  0.00  0.00    +0.000 A 
ATOM      7  C   UNL     1     -19.490 -41.753  26.787  0.00  0.00    +0.000 A 
ATOM      8  C   UNL     1     -19.258 -41.900  25.480  0.00  0.00    +0.000 A 
ATOM      9  C   UNL     1     -18.069 -42.356  25.062  0.00  0.00    +0.000 A 
BRANCH   5  19
ATOM     19  O   UNL     1     -16.421 -42.813  28.228  0.00  0.00    +0.000 OA
ATOM     20  H   UNL     1     -16.100 -41.984  28.619  0.00  0.00    +0.000 HD
ENDBRANCH   5  19
ENDBRANCH   2   4
ENDBRANCH   1   2
TORSDOF 5
ENDMDL
MODEL 7
REMARK VINA RESULT:      -8.6      2.670      4.360
REMARK  Name = Fragment
REMARK  6 active torsions:
REMARK  status: ('A' for Active; 'I' for Inactive)
REMARK    1  A    between atoms: C_1  and  C_2
REMARK    2  A    between atoms: C_2  and  C_4
REMARK    3  A    between atoms: C_5  and  O_19
REMARK    4  A    between atoms: C_10  and  C_11
REMARK    5  A    between atoms: C_14  and  O_17
REMARK    6  A    between atoms: O_17  and  C_18
REMARK                            x       y       z     vdW  Elec       q    Type
REMARK                         _______ _______ _______ _____ _____    ______ ____
ROOT
ATOM      1  C   UNL     1     -16.925 -42.132  23.020  0.00  0.00    +0.000 C 
ATOM     10  C   UNL     1     -15.934 -41.930  23.915  0.00  0.00    +0.000 C 
ENDROOT
BRANCH  10  11
ATOM     11  C   UNL     1     -15.341 -42.842  24.718  0.00  0.00    +0.000 A 
ATOM     12  C   UNL     1     -15.314 -42.625  26.049  0.00  0.00    +0.000 A 
ATOM     13  C   UNL     1     -14.741 -43.491  26.898  0.00  0.00    +0.000 A 
ATOM     14  C   UNL     1     -14.155 -44.631  26.487  0.00  0.00    +0.000 A 
ATOM     15  C   UNL     1     -14.184 -44.846  25.158  0.00  0.00    +0.000 A 
ATOM     16  C   UNL     1     -14.757 -43.982  24.301  0.00  0.00    +0.000 A 
BRANCH  14  17
ATOM     17  O   UNL     1     -13.591 -45.465  27.422  0.00  0.00    +0.000 OA
ATOM     18  C   UNL     1     -13.557 -45.048  28.768  0.00  0.00    +0.000 C 
ENDBRANCH  14  17
ENDBRANCH  10  11
BRANCH   1   2
ATOM      2  C   UNL     1     -17.482 -41.156  22.235  0.00  0.00    +0.000 C 
ATOM      3  O   UNL     1     -16.735 -40.575  21.469  0.00  0.00    +0.000 OA
BRANCH   2   4
ATOM      4  C   UNL     1     -18.824 -40.844  22.306  0.00  0.00    +0.000 A 
ATOM      5  C   UNL     1     -19.503 -40.410  21.209  0.00  0.00    +0.000 A 
ATOM      6  C   UNL     1     -20.813 -40.112  21.308  0.00  0.00    +0.000 A 
ATOM      7  C   UNL     1     -21.496 -40.224  22.453  0.00  0.00    +0.000 A 
ATOM      8  C   UNL     1     -20.841 -40.649  23.536  0.00  0.00    +0.000 A 
ATOM      9  C   UNL     1     -19.537 -40.948  23.451  0.00  0.00    +0.000 A 
BRANCH   5  19
ATOM     19  O   UNL     1     -18.953 -40.242  19.972  0.00  0.00    +0.000 OA
ATOM     20  H   UNL     1     -18.012 -40.016  20.063  0.00  0.00    +0.000 HD
ENDBRANCH   5  19
ENDBRANCH   2   4
ENDBRANCH   1   2
TORSDOF 5
ENDMDL
MODEL 8
REMARK VINA RESULT:      -8.0      2.807      5.314
REMARK  Name = Fragment
REMARK  6 active torsions:
REMARK  status: ('A' for Active; 'I' for Inactive)
REMARK    1  A    between atoms: C_1  and  C_2
REMARK    2  A    between atoms: C_2  and  C_4
REMARK    3  A    between atoms: C_5  and  O_19
REMARK    4  A    between atoms: C_10  and  C_11
REMARK    5  A    between atoms: C_14  and  O_17
REMARK    6  A    between atoms: O_17  and  C_18
REMARK                            x       y       z     vdW  Elec       q    Type
REMARK                         _______ _______ _______ _____ _____    ______ ____
ROOT
ATOM      1  C   UNL     1     -19.073 -42.320  24.622  0.00  0.00    +0.000 C 
ATOM     10  C   UNL     1     -17.848 -42.620  24.141  0.00  0.00    +0.000 C 
ENDROOT
BRANCH  10  11
ATOM     11  C   UNL     1     -16.692 -42.748  24.830  0.00  0.00    +0.000 A 
ATOM     12  C   UNL     1     -15.534 -42.878  24.151  0.00  0.00    +0.000 A 
ATOM     13  C   UNL     1     -14.355 -43.008  24.778  0.00  0.00    +0.000 A 
ATOM     14  C   UNL     1     -14.242 -43.019  26.119  0.00  0.00    +0.000 A 
ATOM     15  C   UNL     1     -15.400 -42.888  26.794  0.00  0.00    +0.000 A 
ATOM     16  C   UNL     1     -16.585 -42.757  26.173  0.00  0.00    +0.000 A 
BRANCH  14  17
ATOM     17  O   UNL     1     -12.996 -43.157  26.682  0.00  0.00    +0.000 OA
ATOM     18  C   UNL     1     -12.801 -44.152  27.660  0.00  0.00    +0.000 C 
ENDBRANCH  14  17
ENDBRANCH  10  11
BRANCH   1   2
ATOM      2  C   UNL     1     -20.208 -42.207  23.860  0.00  0.00    +0.000 C 
ATOM      3  O   UNL     1     -21.142 -42.929  24.156  0.00  0.00    +0.000 OA
BRANCH   2   4
ATOM      4  C   UNL     1     -20.291 -41.317  22.809  0.00  0.00    +0.000 A 
ATOM      5  C   UNL     1     -20.281 -41.752  21.519  0.00  0.00    +0.000 A 
ATOM      6  C   UNL     1     -20.364 -40.861  20.512  0.00  0.00    +0.000 A 
ATOM      7  C   UNL     1     -20.456 -39.543  20.718  0.00  0.00    +0.000 A 
ATOM      8  C   UNL     1     -20.466 -39.103  21.979  0.00  0.00    +0.000 A 
ATOM      9  C   UNL     1     -20.385 -39.980  22.991  0.00  0.00    +0.000 A 
BRANCH   5  19
ATOM     19  O   UNL     1     -20.192 -43.060  21.142  0.00  0.00    +0.000 OA
ATOM     20  H   UNL     1     -21.078 -43.398  20.930  0.00  0.00    +0.000 HD
ENDBRANCH   5  19
ENDBRANCH   2   4
ENDBRANCH   1   2
TORSDOF 5
ENDMDL
MODEL 9
REMARK VINA RESULT:      -8.0      4.030      9.883
REMARK  Name = Fragment
REMARK  6 active torsions:
REMARK  status: ('A' for Active; 'I' for Inactive)
REMARK    1  A    between atoms: C_1  and  C_2
REMARK    2  A    between atoms: C_2  and  C_4
REMARK    3  A    between atoms: C_5  and  O_19
REMARK    4  A    between atoms: C_10  and  C_11
REMARK    5  A    between atoms: C_14  and  O_17
REMARK    6  A    between atoms: O_17  and  C_18
REMARK                            x       y       z     vdW  Elec       q    Type
REMARK                         _______ _______ _______ _____ _____    ______ ____
ROOT
ATOM      1  C   UNL     1     -18.715 -41.723  23.436  0.00  0.00    +0.000 C 
ATOM     10  C   UNL     1     -18.612 -41.020  22.287  0.00  0.00    +0.000 C 
ENDROOT
BRANCH  10  11
ATOM     11  C   UNL     1     -19.541 -40.222  21.715  0.00  0.00    +0.000 A 
ATOM     12  C   UNL     1     -19.481 -39.992  20.388  0.00  0.00    +0.000 A 
ATOM     13  C   UNL     1     -20.374 -39.210  19.762  0.00  0.00    +0.000 A 
ATOM     14  C   UNL     1     -21.386 -38.602  20.408  0.00  0.00    +0.000 A 
ATOM     15  C   UNL     1     -21.444 -38.834  21.733  0.00  0.00    +0.000 A 
ATOM     16  C   UNL     1     -20.554 -39.616  22.367  0.00  0.00    +0.000 A 
BRANCH  14  17
ATOM     17  O   UNL     1     -22.257 -37.817  19.691  0.00  0.00    +0.000 OA
ATOM     18  C   UNL     1     -22.078 -37.705  18.298  0.00  0.00    +0.000 C 
ENDBRANCH  14  17
ENDBRANCH  10  11
BRANCH   1   2
ATOM      2  C   UNL     1     -17.726 -42.516  23.959  0.00  0.00    +0.000 C 
ATOM      3  O   UNL     1     -17.103 -43.206  23.174  0.00  0.00    +0.000 OA
BRANCH   2   4
ATOM      4  C   UNL     1     -17.449 -42.535  25.311  0.00  0.00    +0.000 A 
ATOM      5  C   UNL     1     -16.187 -42.765  25.765  0.00  0.00    +0.000 A 
ATOM      6  C   UNL     1     -15.945 -42.777  27.091  0.00  0.00    +0.000 A 
ATOM      7  C   UNL     1     -16.901 -42.570  28.002  0.00  0.00    +0.000 A 
ATOM      8  C   UNL     1     -18.144 -42.343  27.569  0.00  0.00    +0.000 A 
ATOM      9  C   UNL     1     -18.398 -42.328  26.253  0.00  0.00    +0.000 A 
BRANCH   5  19
ATOM     19  O   UNL     1     -15.104 -42.995  24.967  0.00  0.00    +0.000 OA
ATOM     20  H   UNL     1     -14.732 -43.869  25.169  0.00  0.00    +0.000 HD
ENDBRANCH   5  19
ENDBRANCH   2   4
ENDBRANCH   1   2
TORSDOF 5
ENDMDL
MODEL 10
REMARK VINA RESULT:      -7.9      2.286      3.956
REMARK  Name = Fragment
REMARK  6 active torsions:
REMARK  status: ('A' for Active; 'I' for Inactive)
REMARK    1  A    between atoms: C_1  and  C_2
REMARK    2  A    between atoms: C_2  and  C_4
REMARK    3  A    between atoms: C_5  and  O_19
REMARK    4  A    between atoms: C_10  and  C_11
REMARK    5  A    between atoms: C_14  and  O_17
REMARK    6  A    between atoms: O_17  and  C_18
REMARK                            x       y       z     vdW  Elec       q    Type
REMARK                         _______ _______ _______ _____ _____    ______ ____
ROOT
ATOM      1  C   UNL     1     -17.910 -42.706  24.583  0.00  0.00    +0.000 C 
ATOM     10  C   UNL     1     -16.707 -42.376  25.099  0.00  0.00    +0.000 C 
ENDROOT
BRANCH  10  11
ATOM     11  C   UNL     1     -15.756 -43.204  25.587  0.00  0.00    +0.000 A 
ATOM     12  C   UNL     1     -15.562 -43.268  26.920  0.00  0.00    +0.000 A 
ATOM     13  C   UNL     1     -14.635 -44.070  27.465  0.00  0.00    +0.000 A 
ATOM     14  C   UNL     1     -13.836 -44.863  26.727  0.00  0.00    +0.000 A 
ATOM     15  C   UNL     1     -14.033 -44.798  25.396  0.00  0.00    +0.000 A 
ATOM     16  C   UNL     1     -14.960 -43.997  24.843  0.00  0.00    +0.000 A 
BRANCH  14  17
ATOM     17  O   UNL     1     -12.912 -45.654  27.364  0.00  0.00    +0.000 OA
ATOM     18  C   UNL     1     -13.028 -45.845  28.755  0.00  0.00    +0.000 C 
ENDBRANCH  14  17
ENDBRANCH  10  11
BRANCH   1   2
ATOM      2  C   UNL     1     -18.830 -41.809  24.104  0.00  0.00    +0.000 C 
ATOM      3  O   UNL     1     -18.639 -41.372  22.984  0.00  0.00    +0.000 OA
BRANCH   2   4
ATOM      4  C   UNL     1     -19.920 -41.417  24.853  0.00  0.00    +0.000 A 
ATOM      5  C   UNL     1     -21.059 -40.971  24.255  0.00  0.00    +0.000 A 
ATOM      6  C   UNL     1     -22.109 -40.594  25.011  0.00  0.00    +0.000 A 
ATOM      7  C   UNL     1     -22.090 -40.638  26.348  0.00  0.00    +0.000 A 
ATOM      8  C   UNL     1     -20.978 -41.074  26.947  0.00  0.00    +0.000 A 
ATOM      9  C   UNL     1     -19.926 -41.451  26.206  0.00  0.00    +0.000 A 
BRANCH   5  19
ATOM     19  O   UNL     1     -21.237 -40.866  22.906  0.00  0.00    +0.000 OA
ATOM     20  H   UNL     1     -20.934 -39.993  22.606  0.00  0.00    +0.000 HD
ENDBRANCH   5  19
ENDBRANCH   2   4
ENDBRANCH   1   2
TORSDOF 5
ENDMDL
