MODEL 1
REMARK VINA RESULT:      -9.9      0.000      0.000
REMARK  Name = Fragment
REMARK  4 active torsions:
REMARK  status: ('A' for Active; 'I' for Inactive)
REMARK    1  A    between atoms: C_3  and  O_4
REMARK    2  A    between atoms: N_10  and  C_11
REMARK    3  A    between atoms: C_17  and  O_18
REMARK    4  A    between atoms: O_18  and  C_19
REMARK                            x       y       z     vdW  Elec       q    Type
REMARK                         _______ _______ _______ _____ _____    ______ ____
ROOT
ATOM      1  C   UNL     1      -9.628 -43.315  31.608  0.00  0.00    +0.000 C 
ATOM      2  C   UNL     1      -8.395 -43.587  32.482  0.00  0.00    +0.000 C 
ATOM      3  C   UNL     1      -7.471 -44.608  31.832  0.00  0.00    +0.000 C 
ATOM      5  C   UNL     1      -8.259 -45.871  31.639  0.00  0.00    +0.000 C 
ATOM      6  C   UNL     1      -9.532 -45.817  31.226  0.00  0.00    +0.000 C 
ATOM      7  C   UNL     1     -10.189 -44.523  30.809  0.00  0.00    +0.000 C 
ATOM      8  C   UNL     1     -10.095 -44.307  29.292  0.00  0.00    +0.000 C 
ATOM      9  C   UNL     1     -10.668 -45.425  28.404  0.00  0.00    +0.000 C 
ATOM     10  N   UNL     1     -12.117 -45.600  28.476  0.00  0.00    +0.000 NA
ATOM     11  C   UNL     1     -12.562 -46.453  27.378  0.00  0.00    +0.000 C 
ATOM     12  C   UNL     1     -12.564 -46.159  29.750  0.00  0.00    +0.000 C 
ATOM     13  C   UNL     1     -12.675 -45.095  30.822  0.00  0.00    +0.000 A 
ATOM     14  C   UNL     1     -11.618 -44.394  31.259  0.00  0.00    +0.000 A 
ATOM     15  C   UNL     1     -11.753 -43.426  32.174  0.00  0.00    +0.000 A 
ATOM     16  O   UNL     1     -10.699 -42.842  32.424  0.00  0.00    +0.000 OA
ATOM     17  C   UNL     1     -12.927 -43.113  32.754  0.00  0.00    +0.000 A 
ATOM     20  C   UNL     1     -13.979 -43.840  32.326  0.00  0.00    +0.000 A 
ATOM     21  C   UNL     1     -13.858 -44.794  31.387  0.00  0.00    +0.000 A 
ENDROOT
BRANCH   3   4
ATOM      4  O   UNL     1      -6.358 -44.852  32.672  0.00  0.00    +0.000 OA
ATOM     22  H   UNL     1      -6.242 -45.802  32.747  0.00  0.00    +0.000 HD
ENDBRANCH   3   4
BRANCH  17  18
ATOM     18  O   UNL     1     -12.975 -42.110  33.691  0.00  0.00    +0.000 OA
ATOM     19  C   UNL     1     -14.215 -41.790  34.278  0.00  0.00    +0.000 C 
ENDBRANCH  17  18
TORSDOF 2
ENDMDL
MODEL 2
REMARK VINA RESULT:      -9.6      2.401      4.342
REMARK  Name = Fragment
REMARK  4 active torsions:
REMARK  status: ('A' for Active; 'I' for Inactive)
REMARK    1  A    between atoms: C_3  and  O_4
REMARK    2  A    between atoms: N_10  and  C_11
REMARK    3  A    between atoms: C_17  and  O_18
REMARK    4  A    between atoms: O_18  and  C_19
REMARK                            x       y       z     vdW  Elec       q    Type
REMARK                         _______ _______ _______ _____ _____    ______ ____
ROOT
ATOM      1  C   UNL     1      -8.319 -43.585  31.508  0.00  0.00    +0.000 C 
ATOM      2  C   UNL     1      -7.897 -42.717  32.703  0.00  0.00    +0.000 C 
ATOM      3  C   UNL     1      -8.738 -43.025  33.935  0.00  0.00    +0.000 C 
ATOM      5  C   UNL     1     -10.172 -42.757  33.580  0.00  0.00    +0.000 C 
ATOM      6  C   UNL     1     -10.650 -43.117  32.381  0.00  0.00    +0.000 C 
ATOM      7  C   UNL     1      -9.832 -43.915  31.395  0.00  0.00    +0.000 C 
ATOM      8  C   UNL     1     -10.107 -45.421  31.523  0.00  0.00    +0.000 C 
ATOM      9  C   UNL     1     -11.573 -45.864  31.377  0.00  0.00    +0.000 C 
ATOM     10  N   UNL     1     -12.151 -45.684  30.047  0.00  0.00    +0.000 NA
ATOM     11  C   UNL     1     -13.410 -46.418  29.956  0.00  0.00    +0.000 C 
ATOM     12  C   UNL     1     -12.370 -44.281  29.703  0.00  0.00    +0.000 C 
ATOM     13  C   UNL     1     -11.103 -43.619  29.203  0.00  0.00    +0.000 A 
ATOM     14  C   UNL     1     -10.009 -43.480  29.966  0.00  0.00    +0.000 A 
ATOM     15  C   UNL     1      -8.886 -42.935  29.483  0.00  0.00    +0.000 A 
ATOM     16  O   UNL     1      -7.958 -42.933  30.291  0.00  0.00    +0.000 OA
ATOM     17  C   UNL     1      -8.777 -42.449  28.232  0.00  0.00    +0.000 A 
ATOM     20  C   UNL     1      -9.890 -42.571  27.481  0.00  0.00    +0.000 A 
ATOM     21  C   UNL     1     -11.013 -43.143  27.948  0.00  0.00    +0.000 A 
ENDROOT
BRANCH   3   4
ATOM      4  O   UNL     1      -8.339 -42.194  35.009  0.00  0.00    +0.000 OA
ATOM     22  H   UNL     1      -7.426 -41.936  34.865  0.00  0.00    +0.000 HD
ENDBRANCH   3   4
BRANCH  17  18
ATOM     18  O   UNL     1      -7.589 -41.897  27.819  0.00  0.00    +0.000 OA
ATOM     19  C   UNL     1      -7.533 -41.277  26.555  0.00  0.00    +0.000 C 
ENDBRANCH  17  18
TORSDOF 2
ENDMDL
MODEL 3
REMARK VINA RESULT:      -7.9      9.698     12.340
REMARK  Name = Fragment
REMARK  4 active torsions:
REMARK  status: ('A' for Active; 'I' for Inactive)
REMARK    1  A    between atoms: C_3  and  O_4
REMARK    2  A    between atoms: N_10  and  C_11
REMARK    3  A    between atoms: C_17  and  O_18
REMARK    4  A    between atoms: O_18  and  C_19
REMARK                            x       y       z     vdW  Elec       q    Type
REMARK                         _______ _______ _______ _____ _____    ______ ____
ROOT
ATOM      1  C   UNL     1     -19.670 -43.114  24.715  0.00  0.00    +0.000 C 
ATOM      2  C   UNL     1     -20.179 -42.987  26.158  0.00  0.00    +0.000 C 
ATOM      3  C   UNL     1     -21.561 -42.349  26.203  0.00  0.00    +0.000 C 
ATOM      5  C   UNL     1     -21.452 -40.992  25.570  0.00  0.00    +0.000 C 
ATOM      6  C   UNL     1     -20.710 -40.818  24.468  0.00  0.00    +0.000 C 
ATOM      7  C   UNL     1     -20.068 -41.974  23.739  0.00  0.00    +0.000 C 
ATOM      8  C   UNL     1     -20.955 -42.479  22.591  0.00  0.00    +0.000 C 
ATOM      9  C   UNL     1     -21.370 -41.437  21.537  0.00  0.00    +0.000 C 
ATOM     10  N   UNL     1     -20.282 -40.915  20.713  0.00  0.00    +0.000 NA
ATOM     11  C   UNL     1     -20.835 -40.195  19.570  0.00  0.00    +0.000 C 
ATOM     12  C   UNL     1     -19.370 -40.045  21.452  0.00  0.00    +0.000 C 
ATOM     13  C   UNL     1     -18.347 -40.839  22.237  0.00  0.00    +0.000 A 
ATOM     14  C   UNL     1     -18.686 -41.677  23.227  0.00  0.00    +0.000 A 
ATOM     15  C   UNL     1     -17.764 -42.404  23.872  0.00  0.00    +0.000 A 
ATOM     16  O   UNL     1     -18.244 -43.165  24.712  0.00  0.00    +0.000 OA
ATOM     17  C   UNL     1     -16.445 -42.320  23.619  0.00  0.00    +0.000 A 
ATOM     20  C   UNL     1     -16.112 -41.456  22.639  0.00  0.00    +0.000 A 
ATOM     21  C   UNL     1     -17.033 -40.744  21.967  0.00  0.00    +0.000 A 
ENDROOT
BRANCH   3   4
ATOM      4  O   UNL     1     -21.990 -42.226  27.546  0.00  0.00    +0.000 OA
ATOM     22  H   UNL     1     -21.885 -43.079  27.974  0.00  0.00    +0.000 HD
ENDBRANCH   3   4
BRANCH  17  18
ATOM     18  O   UNL     1     -15.566 -43.095  24.335  0.00  0.00    +0.000 OA
ATOM     19  C   UNL     1     -14.848 -42.505  25.394  0.00  0.00    +0.000 C 
ENDBRANCH  17  18
TORSDOF 2
ENDMDL
MODEL 4
REMARK VINA RESULT:      -7.7      9.839     11.849
REMARK  Name = Fragment
REMARK  4 active torsions:
REMARK  status: ('A' for Active; 'I' for Inactive)
REMARK    1  A    between atoms: C_3  and  O_4
REMARK    2  A    between atoms: N_10  and  C_11
REMARK    3  A    between atoms: C_17  and  O_18
REMARK    4  A    between atoms: O_18  and  C_19
REMARK                            x       y       z     vdW  Elec       q    Type
REMARK                         _______ _______ _______ _____ _____    ______ ____
ROOT
ATOM      1  C   UNL     1     -18.024 -42.743  23.839  0.00  0.00    +0.000 C 
ATOM      2  C   UNL     1     -16.572 -42.607  24.320  0.00  0.00    +0.000 C 
ATOM      3  C   UNL     1     -16.411 -43.121  25.745  0.00  0.00    +0.000 C 
ATOM      5  C   UNL     1     -17.325 -42.315  26.621  0.00  0.00    +0.000 C 
ATOM      6  C   UNL     1     -18.555 -41.994  26.200  0.00  0.00    +0.000 C 
ATOM      7  C   UNL     1     -19.129 -42.527  24.909  0.00  0.00    +0.000 C 
ATOM      8  C   UNL     1     -19.962 -43.795  25.144  0.00  0.00    +0.000 C 
ATOM      9  C   UNL     1     -21.118 -43.678  26.153  0.00  0.00    +0.000 C 
ATOM     10  N   UNL     1     -22.219 -42.808  25.744  0.00  0.00    +0.000 NA
ATOM     11  C   UNL     1     -23.366 -43.026  26.619  0.00  0.00    +0.000 C 
ATOM     12  C   UNL     1     -21.859 -41.391  25.743  0.00  0.00    +0.000 C 
ATOM     13  C   UNL     1     -21.125 -40.998  24.478  0.00  0.00    +0.000 A 
ATOM     14  C   UNL     1     -19.936 -41.517  24.140  0.00  0.00    +0.000 A 
ATOM     15  C   UNL     1     -19.332 -41.188  22.991  0.00  0.00    +0.000 A 
ATOM     16  O   UNL     1     -18.277 -41.794  22.804  0.00  0.00    +0.000 OA
ATOM     17  C   UNL     1     -19.834 -40.293  22.121  0.00  0.00    +0.000 A 
ATOM     20  C   UNL     1     -21.018 -39.758  22.482  0.00  0.00    +0.000 A 
ATOM     21  C   UNL     1     -21.645 -40.104  23.619  0.00  0.00    +0.000 A 
ENDROOT
BRANCH   3   4
ATOM      4  O   UNL     1     -15.068 -42.961  26.164  0.00  0.00    +0.000 OA
ATOM     22  H   UNL     1     -14.913 -42.027  26.325  0.00  0.00    +0.000 HD
ENDBRANCH   3   4
BRANCH  17  18
ATOM     18  O   UNL     1     -19.144 -40.005  20.968  0.00  0.00    +0.000 OA
ATOM     19  C   UNL     1     -19.849 -39.472  19.871  0.00  0.00    +0.000 C 
ENDBRANCH  17  18
TORSDOF 2
ENDMDL
MODEL 5
REMARK VINA RESULT:      -7.5      9.909     12.331
REMARK  Name = Fragment
REMARK  4 active torsions:
REMARK  status: ('A' for Active; 'I' for Inactive)
REMARK    1  A    between atoms: C_3  and  O_4
REMARK    2  A    between atoms: N_10  and  C_11
REMARK    3  A    between atoms: C_17  and  O_18
REMARK    4  A    between atoms: O_18  and  C_19
REMARK                            x       y       z     vdW  Elec       q    Type
REMARK                         _______ _______ _______ _____ _____    ______ ____
ROOT
ATOM      1  C   UNL     1     -20.982 -41.418  25.770  0.00  0.00    +0.000 C 
ATOM      2  C   UNL     1     -22.194 -42.234  26.243  0.00  0.00    +0.000 C 
ATOM      3  C   UNL     1     -21.760 -43.533  26.908  0.00  0.00    +0.000 C 
ATOM      5  C   UNL     1     -20.970 -44.315  25.899  0.00  0.00    +0.000 C 
ATOM      6  C   UNL     1     -20.097 -43.693  25.095  0.00  0.00    +0.000 C 
ATOM      7  C   UNL     1     -19.764 -42.228  25.249  0.00  0.00    +0.000 C 
ATOM      8  C   UNL     1     -18.516 -42.022  26.119  0.00  0.00    +0.000 C 
ATOM      9  C   UNL     1     -17.236 -42.744  25.663  0.00  0.00    +0.000 C 
ATOM     10  N   UNL     1     -16.664 -42.268  24.406  0.00  0.00    +0.000 NA
ATOM     11  C   UNL     1     -15.314 -42.800  24.249  0.00  0.00    +0.000 C 
ATOM     12  C   UNL     1     -17.472 -42.618  23.240  0.00  0.00    +0.000 C 
ATOM     13  C   UNL     1     -18.622 -41.652  23.042  0.00  0.00    +0.000 A 
ATOM     14  C   UNL     1     -19.605 -41.502  23.941  0.00  0.00    +0.000 A 
ATOM     15  C   UNL     1     -20.583 -40.605  23.763  0.00  0.00    +0.000 A 
ATOM     16  O   UNL     1     -21.372 -40.552  24.705  0.00  0.00    +0.000 OA
ATOM     17  C   UNL     1     -20.686 -39.830  22.668  0.00  0.00    +0.000 A 
ATOM     20  C   UNL     1     -19.707 -40.006  21.758  0.00  0.00    +0.000 A 
ATOM     21  C   UNL     1     -18.705 -40.883  21.941  0.00  0.00    +0.000 A 
ENDROOT
BRANCH   3   4
ATOM      4  O   UNL     1     -22.899 -44.270  27.312  0.00  0.00    +0.000 OA
ATOM     22  H   UNL     1     -23.329 -44.614  26.524  0.00  0.00    +0.000 HD
ENDBRANCH   3   4
BRANCH  17  18
ATOM     18  O   UNL     1     -21.728 -38.941  22.561  0.00  0.00    +0.000 OA
ATOM     19  C   UNL     1     -22.455 -38.892  21.355  0.00  0.00    +0.000 C 
ENDBRANCH  17  18
TORSDOF 2
ENDMDL
MODEL 6
REMARK VINA RESULT:      -7.3     20.289     22.707
REMARK  Name = Fragment
REMARK  4 active torsions:
REMARK  status: ('A' for Active; 'I' for Inactive)
REMARK    1  A    between atoms: C_3  and  O_4
REMARK    2  A    between atoms: N_10  and  C_11
REMARK    3  A    between atoms: C_17  and  O_18
REMARK    4  A    between atoms: O_18  and  C_19
REMARK                            x       y       z     vdW  Elec       q    Type
REMARK                         _______ _______ _______ _____ _____    ______ ____
ROOT
ATOM      1  C   UNL     1       1.310 -57.320  18.873  0.00  0.00    +0.000 C 
ATOM      2  C   UNL     1      -0.074 -57.611  18.274  0.00  0.00    +0.000 C 
ATOM      3  C   UNL     1       0.036 -58.470  17.021  0.00  0.00    +0.000 C 
ATOM      5  C   UNL     1       0.881 -57.720  16.033  0.00  0.00    +0.000 C 
ATOM      6  C   UNL     1       1.970 -57.056  16.442  0.00  0.00    +0.000 C 
ATOM      7  C   UNL     1       2.475 -57.135  17.863  0.00  0.00    +0.000 C 
ATOM      8  C   UNL     1       3.553 -58.218  18.019  0.00  0.00    +0.000 C 
ATOM      9  C   UNL     1       4.779 -58.102  17.097  0.00  0.00    +0.000 C 
ATOM     10  N   UNL     1       5.640 -56.947  17.344  0.00  0.00    +0.000 NA
ATOM     11  C   UNL     1       6.905 -57.119  16.636  0.00  0.00    +0.000 C 
ATOM     12  C   UNL     1       5.025 -55.680  16.957  0.00  0.00    +0.000 C 
ATOM     13  C   UNL     1       4.084 -55.162  18.025  0.00  0.00    +0.000 A 
ATOM     14  C   UNL     1       2.981 -55.825  18.402  0.00  0.00    +0.000 A 
ATOM     15  C   UNL     1       2.193 -55.369  19.383  0.00  0.00    +0.000 A 
ATOM     16  O   UNL     1       1.255 -56.121  19.645  0.00  0.00    +0.000 OA
ATOM     17  C   UNL     1       2.410 -54.207  20.028  0.00  0.00    +0.000 A 
ATOM     20  C   UNL     1       3.508 -53.536  19.625  0.00  0.00    +0.000 A 
ATOM     21  C   UNL     1       4.321 -54.001  18.661  0.00  0.00    +0.000 A 
ENDROOT
BRANCH   3   4
ATOM      4  O   UNL     1      -1.253 -58.701  16.483  0.00  0.00    +0.000 OA
ATOM     22  H   UNL     1      -1.897 -58.279  17.056  0.00  0.00    +0.000 HD
ENDBRANCH   3   4
BRANCH  17  18
ATOM     18  O   UNL     1       1.546 -53.807  21.018  0.00  0.00    +0.000 OA
ATOM     19  C   UNL     1       0.839 -52.600  20.853  0.00  0.00    +0.000 C 
ENDBRANCH  17  18
TORSDOF 2
ENDMDL
MODEL 7
REMARK VINA RESULT:      -7.3     20.347     22.286
REMARK  Name = Fragment
REMARK  4 active torsions:
REMARK  status: ('A' for Active; 'I' for Inactive)
REMARK    1  A    between atoms: C_3  and  O_4
REMARK    2  A    between atoms: N_10  and  C_11
REMARK    3  A    between atoms: C_17  and  O_18
REMARK    4  A    between atoms: O_18  and  C_19
REMARK                            x       y       z     vdW  Elec       q    Type
REMARK                         _______ _______ _______ _____ _____    ______ ____
ROOT
ATOM      1  C   UNL     1      -2.331 -36.605  12.395  0.00  0.00    +0.000 C 
ATOM      2  C   UNL     1      -1.314 -35.660  11.739  0.00  0.00    +0.000 C 
ATOM      3  C   UNL     1      -1.826 -35.138  10.403  0.00  0.00    +0.000 C 
ATOM      5  C   UNL     1      -2.075 -36.327   9.520  0.00  0.00    +0.000 C 
ATOM      6  C   UNL     1      -2.633 -37.436  10.022  0.00  0.00    +0.000 C 
ATOM      7  C   UNL     1      -3.157 -37.505  11.437  0.00  0.00    +0.000 C 
ATOM      8  C   UNL     1      -4.659 -37.190  11.498  0.00  0.00    +0.000 C 
ATOM      9  C   UNL     1      -5.577 -38.058  10.620  0.00  0.00    +0.000 C 
ATOM     10  N   UNL     1      -5.668 -39.464  11.009  0.00  0.00    +0.000 NA
ATOM     11  C   UNL     1      -6.786 -40.093  10.314  0.00  0.00    +0.000 C 
ATOM     12  C   UNL     1      -4.439 -40.211  10.749  0.00  0.00    +0.000 C 
ATOM     13  C   UNL     1      -3.415 -40.010  11.846  0.00  0.00    +0.000 A 
ATOM     14  C   UNL     1      -2.878 -38.813  12.125  0.00  0.00    +0.000 A 
ATOM     15  C   UNL     1      -2.011 -38.655  13.133  0.00  0.00    +0.000 A 
ATOM     16  O   UNL     1      -1.656 -37.488  13.292  0.00  0.00    +0.000 OA
ATOM     17  C   UNL     1      -1.578 -39.670  13.904  0.00  0.00    +0.000 A 
ATOM     20  C   UNL     1      -2.105 -40.873  13.600  0.00  0.00    +0.000 A 
ATOM     21  C   UNL     1      -2.998 -41.037  12.609  0.00  0.00    +0.000 A 
ENDROOT
BRANCH   3   4
ATOM      4  O   UNL     1      -0.858 -34.290   9.815  0.00  0.00    +0.000 OA
ATOM     22  H   UNL     1      -0.077 -34.814   9.621  0.00  0.00    +0.000 HD
ENDBRANCH   3   4
BRANCH  17  18
ATOM     18  O   UNL     1      -0.679 -39.422  14.912  0.00  0.00    +0.000 OA
ATOM     19  C   UNL     1       0.697 -39.421  14.608  0.00  0.00    +0.000 C 
ENDBRANCH  17  18
TORSDOF 2
ENDMDL
MODEL 8
REMARK VINA RESULT:      -6.6     20.978     23.168
REMARK  Name = Fragment
REMARK  4 active torsions:
REMARK  status: ('A' for Active; 'I' for Inactive)
REMARK    1  A    between atoms: C_3  and  O_4
REMARK    2  A    between atoms: N_10  and  C_11
REMARK    3  A    between atoms: C_17  and  O_18
REMARK    4  A    between atoms: O_18  and  C_19
REMARK                            x       y       z     vdW  Elec       q    Type
REMARK                         _______ _______ _______ _____ _____    ______ ____
ROOT
ATOM      1  C   UNL     1      -4.565 -37.471  11.325  0.00  0.00    +0.000 C 
ATOM      2  C   UNL     1      -5.660 -38.149  10.489  0.00  0.00    +0.000 C 
ATOM      3  C   UNL     1      -5.938 -39.562  10.983  0.00  0.00    +0.000 C 
ATOM      5  C   UNL     1      -4.655 -40.336  10.882  0.00  0.00    +0.000 C 
ATOM      6  C   UNL     1      -3.493 -39.764  11.222  0.00  0.00    +0.000 C 
ATOM      7  C   UNL     1      -3.423 -38.388  11.842  0.00  0.00    +0.000 C 
ATOM      8  C   UNL     1      -3.389 -38.462  13.375  0.00  0.00    +0.000 C 
ATOM      9  C   UNL     1      -2.264 -39.308  13.995  0.00  0.00    +0.000 C 
ATOM     10  N   UNL     1      -0.912 -38.786  13.807  0.00  0.00    +0.000 NA
ATOM     11  C   UNL     1       0.013 -39.489  14.691  0.00  0.00    +0.000 C 
ATOM     12  C   UNL     1      -0.448 -38.886  12.425  0.00  0.00    +0.000 C 
ATOM     13  C   UNL     1      -0.968 -37.747  11.573  0.00  0.00    +0.000 A 
ATOM     14  C   UNL     1      -2.275 -37.554  11.342  0.00  0.00    +0.000 A 
ATOM     15  C   UNL     1      -2.711 -36.511  10.625  0.00  0.00    +0.000 A 
ATOM     16  O   UNL     1      -3.937 -36.446  10.554  0.00  0.00    +0.000 OA
ATOM     17  C   UNL     1      -1.890 -35.614  10.049  0.00  0.00    +0.000 A 
ATOM     20  C   UNL     1      -0.576 -35.830  10.266  0.00  0.00    +0.000 A 
ATOM     21  C   UNL     1      -0.131 -36.858  11.008  0.00  0.00    +0.000 A 
ENDROOT
BRANCH   3   4
ATOM      4  O   UNL     1      -6.935 -40.165  10.179  0.00  0.00    +0.000 OA
ATOM     22  H   UNL     1      -7.021 -41.083  10.446  0.00  0.00    +0.000 HD
ENDBRANCH   3   4
BRANCH  17  18
ATOM     18  O   UNL     1      -2.420 -34.577   9.321  0.00  0.00    +0.000 OA
ATOM     19  C   UNL     1      -2.183 -34.532   7.933  0.00  0.00    +0.000 C 
ENDBRANCH  17  18
TORSDOF 2
ENDMDL
MODEL 9
REMARK VINA RESULT:      -6.6     25.263     27.794
REMARK  Name = Fragment
REMARK  4 active torsions:
REMARK  status: ('A' for Active; 'I' for Inactive)
REMARK    1  A    between atoms: C_3  and  O_4
REMARK    2  A    between atoms: N_10  and  C_11
REMARK    3  A    between atoms: C_17  and  O_18
REMARK    4  A    between atoms: O_18  and  C_19
REMARK                            x       y       z     vdW  Elec       q    Type
REMARK                         _______ _______ _______ _____ _____    ______ ____
ROOT
ATOM      1  C   UNL     1      -1.766 -57.391   6.907  0.00  0.00    +0.000 C 
ATOM      2  C   UNL     1      -1.918 -57.144   5.399  0.00  0.00    +0.000 C 
ATOM      3  C   UNL     1      -0.727 -56.377   4.841  0.00  0.00    +0.000 C 
ATOM      5  C   UNL     1      -0.648 -55.070   5.575  0.00  0.00    +0.000 C 
ATOM      6  C   UNL     1      -0.868 -55.023   6.896  0.00  0.00    +0.000 C 
ATOM      7  C   UNL     1      -1.069 -56.269   7.724  0.00  0.00    +0.000 C 
ATOM      8  C   UNL     1       0.248 -56.745   8.354  0.00  0.00    +0.000 C 
ATOM      9  C   UNL     1       0.998 -55.724   9.226  0.00  0.00    +0.000 C 
ATOM     10  N   UNL     1       0.325 -55.348  10.468  0.00  0.00    +0.000 NA
ATOM     11  C   UNL     1       1.259 -54.638  11.336  0.00  0.00    +0.000 C 
ATOM     12  C   UNL     1      -0.867 -54.531  10.249  0.00  0.00    +0.000 C 
ATOM     13  C   UNL     1      -2.071 -55.378   9.894  0.00  0.00    +0.000 A 
ATOM     14  C   UNL     1      -2.126 -56.130   8.785  0.00  0.00    +0.000 A 
ATOM     15  C   UNL     1      -3.184 -56.907   8.520  0.00  0.00    +0.000 A 
ATOM     16  O   UNL     1      -3.053 -57.576   7.496  0.00  0.00    +0.000 OA
ATOM     17  C   UNL     1      -4.278 -56.960   9.302  0.00  0.00    +0.000 A 
ATOM     20  C   UNL     1      -4.224 -56.181  10.401  0.00  0.00    +0.000 A 
ATOM     21  C   UNL     1      -3.154 -55.421  10.691  0.00  0.00    +0.000 A 
ENDROOT
BRANCH   3   4
ATOM      4  O   UNL     1      -0.910 -56.147   3.456  0.00  0.00    +0.000 OA
ATOM     22  H   UNL     1      -1.284 -55.270   3.344  0.00  0.00    +0.000 HD
ENDBRANCH   3   4
BRANCH  17  18
ATOM     18  O   UNL     1      -5.324 -57.778   8.951  0.00  0.00    +0.000 OA
ATOM     19  C   UNL     1      -5.987 -58.502   9.962  0.00  0.00    +0.000 C 
ENDBRANCH  17  18
TORSDOF 2
ENDMDL
MODEL 10
REMARK VINA RESULT:      -6.6     21.221     23.473
REMARK  Name = Fragment
REMARK  4 active torsions:
REMARK  status: ('A' for Active; 'I' for Inactive)
REMARK    1  A    between atoms: C_3  and  O_4
REMARK    2  A    between atoms: N_10  and  C_11
REMARK    3  A    between atoms: C_17  and  O_18
REMARK    4  A    between atoms: O_18  and  C_19
REMARK                            x       y       z     vdW  Elec       q    Type
REMARK                         _______ _______ _______ _____ _____    ______ ____
ROOT
ATOM      1  C   UNL     1       4.758 -55.992  16.627  0.00  0.00    +0.000 C 
ATOM      2  C   UNL     1       6.223 -56.131  16.188  0.00  0.00    +0.000 C 
ATOM      3  C   UNL     1       6.579 -57.584  15.902  0.00  0.00    +0.000 C 
ATOM      5  C   UNL     1       6.339 -58.364  17.163  0.00  0.00    +0.000 C 
ATOM      6  C   UNL     1       5.261 -58.113  17.917  0.00  0.00    +0.000 C 
ATOM      7  C   UNL     1       4.180 -57.151  17.483  0.00  0.00    +0.000 C 
ATOM      8  C   UNL     1       3.030 -57.879  16.771  0.00  0.00    +0.000 C 
ATOM      9  C   UNL     1       2.353 -59.018  17.552  0.00  0.00    +0.000 C 
ATOM     10  N   UNL     1       1.602 -58.604  18.736  0.00  0.00    +0.000 NA
ATOM     11  C   UNL     1       0.764 -59.707  19.196  0.00  0.00    +0.000 C 
ATOM     12  C   UNL     1       2.461 -58.147  19.827  0.00  0.00    +0.000 C 
ATOM     13  C   UNL     1       2.890 -56.707  19.639  0.00  0.00    +0.000 A 
ATOM     14  C   UNL     1       3.637 -56.304  18.601  0.00  0.00    +0.000 A 
ATOM     15  C   UNL     1       3.962 -55.015  18.433  0.00  0.00    +0.000 A 
ATOM     16  O   UNL     1       4.601 -54.804  17.403  0.00  0.00    +0.000 OA
ATOM     17  C   UNL     1       3.613 -54.045  19.298  0.00  0.00    +0.000 A 
ATOM     20  C   UNL     1       2.884 -54.464  20.352  0.00  0.00    +0.000 A 
ATOM     21  C   UNL     1       2.528 -55.750  20.513  0.00  0.00    +0.000 A 
ENDROOT
BRANCH   3   4
ATOM      4  O   UNL     1       7.939 -57.680  15.522  0.00  0.00    +0.000 OA
ATOM     22  H   UNL     1       8.081 -57.099  14.770  0.00  0.00    +0.000 HD
ENDBRANCH   3   4
BRANCH  17  18
ATOM     18  O   UNL     1       3.996 -52.749  19.056  0.00  0.00    +0.000 OA
ATOM     19  C   UNL     1       3.293 -51.704  19.688  0.00  0.00    +0.000 C 
ENDBRANCH  17  18
TORSDOF 2
ENDMDL
