MODEL 1
REMARK VINA RESULT:     -11.5      0.000      0.000
REMARK  Name = Fragment
REMARK  5 active torsions:
REMARK  status: ('A' for Active; 'I' for Inactive)
REMARK    1  A    between atoms: C_3  and  C_17
REMARK    2  A    between atoms: C_5  and  C_7
REMARK    3  A    between atoms: C_7  and  C_8
REMARK    4  A    between atoms: C_9  and  C_10
REMARK    5  A    between atoms: C_13  and  C_21
REMARK                            x       y       z     vdW  Elec       q    Type
REMARK                         _______ _______ _______ _____ _____    ______ ____
ROOT
ATOM      7  C   UNL     1     -13.314 -45.581  30.684  0.00  0.00    +0.000 C 
ATOM     16  O   UNL     1     -13.671 -46.690  31.040  0.00  0.00    +0.000 OA
ENDROOT
BRANCH   7   5
ATOM      1  C   UNL     1     -11.158 -43.331  32.558  0.00  0.00    +0.000 A 
ATOM      2  C   UNL     1      -9.965 -43.914  32.384  0.00  0.00    +0.000 A 
ATOM      3  C   UNL     1      -9.870 -45.038  31.657  0.00  0.00    +0.000 A 
ATOM      4  C   UNL     1     -10.996 -45.545  31.120  0.00  0.00    +0.000 A 
ATOM      5  C   UNL     1     -12.219 -44.989  31.271  0.00  0.00    +0.000 A 
ATOM      6  C   UNL     1     -12.264 -43.861  32.011  0.00  0.00    +0.000 A 
BRANCH   3  17
ATOM     17  C   UNL     1      -8.543 -45.730  31.434  0.00  0.00    +0.000 C 
ATOM     18  F   UNL     1      -8.616 -47.050  31.500  0.00  0.00    +0.000 F 
ATOM     19  F   UNL     1      -8.052 -45.416  30.246  0.00  0.00    +0.000 F 
ATOM     20  F   UNL     1      -7.659 -45.334  32.337  0.00  0.00    +0.000 F 
ENDBRANCH   3  17
ENDBRANCH   7   5
BRANCH   7   8
ATOM      8  C   UNL     1     -14.024 -44.951  29.698  0.00  0.00    +0.000 C 
ATOM      9  C   UNL     1     -13.685 -44.958  28.391  0.00  0.00    +0.000 C 
BRANCH   9  10
ATOM     10  C   UNL     1     -14.331 -44.363  27.363  0.00  0.00    +0.000 A 
ATOM     11  C   UNL     1     -14.035 -44.739  26.101  0.00  0.00    +0.000 A 
ATOM     12  C   UNL     1     -14.635 -44.193  25.031  0.00  0.00    +0.000 A 
ATOM     13  C   UNL     1     -15.567 -43.237  25.173  0.00  0.00    +0.000 A 
ATOM     14  C   UNL     1     -15.870 -42.854  26.424  0.00  0.00    +0.000 A 
ATOM     15  C   UNL     1     -15.267 -43.402  27.492  0.00  0.00    +0.000 A 
BRANCH  13  21
ATOM     21  C   UNL     1     -16.263 -42.599  23.994  0.00  0.00    +0.000 C 
ATOM     22  F   UNL     1     -16.575 -43.455  23.033  0.00  0.00    +0.000 F 
ATOM     23  F   UNL     1     -17.382 -42.008  24.385  0.00  0.00    +0.000 F 
ATOM     24  F   UNL     1     -15.496 -41.660  23.461  0.00  0.00    +0.000 F 
ENDBRANCH  13  21
ENDBRANCH   9  10
ENDBRANCH   7   8
TORSDOF 5
ENDMDL
MODEL 2
REMARK VINA RESULT:     -11.5      3.462      8.871
REMARK  Name = Fragment
REMARK  5 active torsions:
REMARK  status: ('A' for Active; 'I' for Inactive)
REMARK    1  A    between atoms: C_3  and  C_17
REMARK    2  A    between atoms: C_5  and  C_7
REMARK    3  A    between atoms: C_7  and  C_8
REMARK    4  A    between atoms: C_9  and  C_10
REMARK    5  A    between atoms: C_13  and  C_21
REMARK                            x       y       z     vdW  Elec       q    Type
REMARK                         _______ _______ _______ _____ _____    ______ ____
ROOT
ATOM      7  C   UNL     1     -15.462 -42.450  24.090  0.00  0.00    +0.000 C 
ATOM     16  O   UNL     1     -14.946 -41.710  23.272  0.00  0.00    +0.000 OA
ENDROOT
BRANCH   7   5
ATOM      1  C   UNL     1     -19.056 -42.402  23.540  0.00  0.00    +0.000 A 
ATOM      2  C   UNL     1     -19.508 -42.361  24.799  0.00  0.00    +0.000 A 
ATOM      3  C   UNL     1     -18.639 -42.350  25.822  0.00  0.00    +0.000 A 
ATOM      4  C   UNL     1     -17.323 -42.380  25.538  0.00  0.00    +0.000 A 
ATOM      5  C   UNL     1     -16.824 -42.421  24.282  0.00  0.00    +0.000 A 
ATOM      6  C   UNL     1     -17.737 -42.431  23.288  0.00  0.00    +0.000 A 
BRANCH   3  17
ATOM     17  C   UNL     1     -19.105 -42.304  27.260  0.00  0.00    +0.000 C 
ATOM     18  F   UNL     1     -19.812 -43.362  27.622  0.00  0.00    +0.000 F 
ATOM     19  F   UNL     1     -18.068 -42.217  28.079  0.00  0.00    +0.000 F 
ATOM     20  F   UNL     1     -19.855 -41.232  27.469  0.00  0.00    +0.000 F 
ENDBRANCH   3  17
ENDBRANCH   7   5
BRANCH   7   8
ATOM      8  C   UNL     1     -14.658 -43.299  24.803  0.00  0.00    +0.000 C 
ATOM      9  C   UNL     1     -14.088 -42.994  25.988  0.00  0.00    +0.000 C 
BRANCH   9  10
ATOM     10  C   UNL     1     -13.286 -43.773  26.749  0.00  0.00    +0.000 A 
ATOM     11  C   UNL     1     -12.225 -43.212  27.364  0.00  0.00    +0.000 A 
ATOM     12  C   UNL     1     -11.386 -43.923  28.135  0.00  0.00    +0.000 A 
ATOM     13  C   UNL     1     -11.570 -45.239  28.328  0.00  0.00    +0.000 A 
ATOM     14  C   UNL     1     -12.624 -45.808  27.721  0.00  0.00    +0.000 A 
ATOM     15  C   UNL     1     -13.461 -45.094  26.951  0.00  0.00    +0.000 A 
BRANCH  13  21
ATOM     21  C   UNL     1     -10.648 -46.071  29.188  0.00  0.00    +0.000 C 
ATOM     22  F   UNL     1      -9.681 -45.373  29.762  0.00  0.00    +0.000 F 
ATOM     23  F   UNL     1     -11.334 -46.672  30.149  0.00  0.00    +0.000 F 
ATOM     24  F   UNL     1     -10.081 -47.023  28.465  0.00  0.00    +0.000 F 
ENDBRANCH  13  21
ENDBRANCH   9  10
ENDBRANCH   7   8
TORSDOF 5
ENDMDL
MODEL 3
REMARK VINA RESULT:     -11.3      1.566      2.341
REMARK  Name = Fragment
REMARK  5 active torsions:
REMARK  status: ('A' for Active; 'I' for Inactive)
REMARK    1  A    between atoms: C_3  and  C_17
REMARK    2  A    between atoms: C_5  and  C_7
REMARK    3  A    between atoms: C_7  and  C_8
REMARK    4  A    between atoms: C_9  and  C_10
REMARK    5  A    between atoms: C_13  and  C_21
REMARK                            x       y       z     vdW  Elec       q    Type
REMARK                         _______ _______ _______ _____ _____    ______ ____
ROOT
ATOM      7  C   UNL     1     -12.807 -46.138  30.485  0.00  0.00    +0.000 C 
ATOM     16  O   UNL     1     -13.583 -46.757  31.190  0.00  0.00    +0.000 OA
ENDROOT
BRANCH   7   5
ATOM      1  C   UNL     1      -9.248 -46.195  31.226  0.00  0.00    +0.000 A 
ATOM      2  C   UNL     1      -9.117 -45.075  31.946  0.00  0.00    +0.000 A 
ATOM      3  C   UNL     1     -10.191 -44.306  32.188  0.00  0.00    +0.000 A 
ATOM      4  C   UNL     1     -11.378 -44.697  31.687  0.00  0.00    +0.000 A 
ATOM      5  C   UNL     1     -11.553 -45.820  30.955  0.00  0.00    +0.000 A 
ATOM      6  C   UNL     1     -10.445 -46.559  30.739  0.00  0.00    +0.000 A 
BRANCH   3  17
ATOM     17  C   UNL     1     -10.090 -43.032  32.998  0.00  0.00    +0.000 C 
ATOM     18  F   UNL     1      -8.865 -42.536  33.055  0.00  0.00    +0.000 F 
ATOM     19  F   UNL     1     -10.876 -42.097  32.487  0.00  0.00    +0.000 F 
ATOM     20  F   UNL     1     -10.494 -43.242  34.242  0.00  0.00    +0.000 F 
ENDBRANCH   3  17
ENDBRANCH   7   5
BRANCH   7   8
ATOM      8  C   UNL     1     -13.214 -45.772  29.230  0.00  0.00    +0.000 C 
ATOM      9  C   UNL     1     -13.971 -44.687  28.959  0.00  0.00    +0.000 C 
BRANCH   9  10
ATOM     10  C   UNL     1     -14.411 -44.261  27.753  0.00  0.00    +0.000 A 
ATOM     11  C   UNL     1     -15.386 -43.331  27.706  0.00  0.00    +0.000 A 
ATOM     12  C   UNL     1     -15.872 -42.861  26.546  0.00  0.00    +0.000 A 
ATOM     13  C   UNL     1     -15.402 -43.303  25.369  0.00  0.00    +0.000 A 
ATOM     14  C   UNL     1     -14.431 -44.230  25.403  0.00  0.00    +0.000 A 
ATOM     15  C   UNL     1     -13.947 -44.697  26.565  0.00  0.00    +0.000 A 
BRANCH  13  21
ATOM     21  C   UNL     1     -15.925 -42.798  24.044  0.00  0.00    +0.000 C 
ATOM     22  F   UNL     1     -16.088 -43.749  23.138  0.00  0.00    +0.000 F 
ATOM     23  F   UNL     1     -17.093 -42.197  24.211  0.00  0.00    +0.000 F 
ATOM     24  F   UNL     1     -15.097 -41.898  23.537  0.00  0.00    +0.000 F 
ENDBRANCH  13  21
ENDBRANCH   9  10
ENDBRANCH   7   8
TORSDOF 5
ENDMDL
MODEL 4
REMARK VINA RESULT:     -11.1      3.234      9.493
REMARK  Name = Fragment
REMARK  5 active torsions:
REMARK  status: ('A' for Active; 'I' for Inactive)
REMARK    1  A    between atoms: C_3  and  C_17
REMARK    2  A    between atoms: C_5  and  C_7
REMARK    3  A    between atoms: C_7  and  C_8
REMARK    4  A    between atoms: C_9  and  C_10
REMARK    5  A    between atoms: C_13  and  C_21
REMARK                            x       y       z     vdW  Elec       q    Type
REMARK                         _______ _______ _______ _____ _____    ______ ____
ROOT
ATOM      7  C   UNL     1     -16.311 -42.835  25.268  0.00  0.00    +0.000 C 
ATOM     16  O   UNL     1     -16.132 -42.902  24.066  0.00  0.00    +0.000 OA
ENDROOT
BRANCH   7   5
ATOM      1  C   UNL     1     -19.089 -42.065  27.484  0.00  0.00    +0.000 A 
ATOM      2  C   UNL     1     -19.998 -41.614  26.610  0.00  0.00    +0.000 A 
ATOM      3  C   UNL     1     -19.700 -41.564  25.302  0.00  0.00    +0.000 A 
ATOM      4  C   UNL     1     -18.478 -41.975  24.912  0.00  0.00    +0.000 A 
ATOM      5  C   UNL     1     -17.533 -42.437  25.761  0.00  0.00    +0.000 A 
ATOM      6  C   UNL     1     -17.879 -42.469  27.065  0.00  0.00    +0.000 A 
BRANCH   3  17
ATOM     17  C   UNL     1     -20.695 -41.062  24.279  0.00  0.00    +0.000 C 
ATOM     18  F   UNL     1     -21.658 -40.317  24.798  0.00  0.00    +0.000 F 
ATOM     19  F   UNL     1     -20.082 -40.336  23.356  0.00  0.00    +0.000 F 
ATOM     20  F   UNL     1     -21.269 -42.079  23.655  0.00  0.00    +0.000 F 
ENDBRANCH   3  17
ENDBRANCH   7   5
BRANCH   7   8
ATOM      8  C   UNL     1     -15.277 -43.164  26.103  0.00  0.00    +0.000 C 
ATOM      9  C   UNL     1     -14.551 -44.299  26.008  0.00  0.00    +0.000 C 
BRANCH   9  10
ATOM     10  C   UNL     1     -13.521 -44.694  26.789  0.00  0.00    +0.000 A 
ATOM     11  C   UNL     1     -13.234 -46.009  26.875  0.00  0.00    +0.000 A 
ATOM     12  C   UNL     1     -12.226 -46.475  27.630  0.00  0.00    +0.000 A 
ATOM     13  C   UNL     1     -11.451 -45.640  28.342  0.00  0.00    +0.000 A 
ATOM     14  C   UNL     1     -11.728 -44.328  28.264  0.00  0.00    +0.000 A 
ATOM     15  C   UNL     1     -12.737 -43.866  27.508  0.00  0.00    +0.000 A 
BRANCH  13  21
ATOM     21  C   UNL     1     -10.309 -46.127  29.202  0.00  0.00    +0.000 C 
ATOM     22  F   UNL     1      -9.588 -47.083  28.640  0.00  0.00    +0.000 F 
ATOM     23  F   UNL     1      -9.492 -45.124  29.491  0.00  0.00    +0.000 F 
ATOM     24  F   UNL     1     -10.768 -46.594  30.352  0.00  0.00    +0.000 F 
ENDBRANCH  13  21
ENDBRANCH   9  10
ENDBRANCH   7   8
TORSDOF 5
ENDMDL
MODEL 5
REMARK VINA RESULT:     -10.5      3.537     10.009
REMARK  Name = Fragment
REMARK  5 active torsions:
REMARK  status: ('A' for Active; 'I' for Inactive)
REMARK    1  A    between atoms: C_3  and  C_17
REMARK    2  A    between atoms: C_5  and  C_7
REMARK    3  A    between atoms: C_7  and  C_8
REMARK    4  A    between atoms: C_9  and  C_10
REMARK    5  A    between atoms: C_13  and  C_21
REMARK                            x       y       z     vdW  Elec       q    Type
REMARK                         _______ _______ _______ _____ _____    ______ ____
ROOT
ATOM      7  C   UNL     1     -16.075 -42.454  23.877  0.00  0.00    +0.000 C 
ATOM     16  O   UNL     1     -15.513 -41.942  22.926  0.00  0.00    +0.000 OA
ENDROOT
BRANCH   7   5
ATOM      1  C   UNL     1     -19.407 -42.369  25.333  0.00  0.00    +0.000 A 
ATOM      2  C   UNL     1     -20.078 -41.686  24.399  0.00  0.00    +0.000 A 
ATOM      3  C   UNL     1     -19.442 -41.255  23.298  0.00  0.00    +0.000 A 
ATOM      4  C   UNL     1     -18.130 -41.532  23.173  0.00  0.00    +0.000 A 
ATOM      5  C   UNL     1     -17.415 -42.219  24.093  0.00  0.00    +0.000 A 
ATOM      6  C   UNL     1     -18.098 -42.630  25.181  0.00  0.00    +0.000 A 
BRANCH   3  17
ATOM     17  C   UNL     1     -20.161 -40.480  22.216  0.00  0.00    +0.000 C 
ATOM     18  F   UNL     1     -19.858 -40.875  20.990  0.00  0.00    +0.000 F 
ATOM     19  F   UNL     1     -21.472 -40.594  22.360  0.00  0.00    +0.000 F 
ATOM     20  F   UNL     1     -19.871 -39.190  22.302  0.00  0.00    +0.000 F 
ENDBRANCH   3  17
ENDBRANCH   7   5
BRANCH   7   8
ATOM      8  C   UNL     1     -15.348 -43.257  24.714  0.00  0.00    +0.000 C 
ATOM      9  C   UNL     1     -14.369 -42.816  25.533  0.00  0.00    +0.000 C 
BRANCH   9  10
ATOM     10  C   UNL     1     -13.609 -43.542  26.384  0.00  0.00    +0.000 A 
ATOM     11  C   UNL     1     -13.873 -44.856  26.536  0.00  0.00    +0.000 A 
ATOM     12  C   UNL     1     -13.161 -45.639  27.362  0.00  0.00    +0.000 A 
ATOM     13  C   UNL     1     -12.143 -45.141  28.082  0.00  0.00    +0.000 A 
ATOM     14  C   UNL     1     -11.870 -43.834  27.939  0.00  0.00    +0.000 A 
ATOM     15  C   UNL     1     -12.585 -43.054  27.111  0.00  0.00    +0.000 A 
BRANCH  13  21
ATOM     21  C   UNL     1     -11.320 -45.991  29.021  0.00  0.00    +0.000 C 
ATOM     22  F   UNL     1     -10.646 -46.955  28.415  0.00  0.00    +0.000 F 
ATOM     23  F   UNL     1     -10.446 -45.239  29.674  0.00  0.00    +0.000 F 
ATOM     24  F   UNL     1     -12.099 -46.555  29.930  0.00  0.00    +0.000 F 
ENDBRANCH  13  21
ENDBRANCH   9  10
ENDBRANCH   7   8
TORSDOF 5
ENDMDL
MODEL 6
REMARK VINA RESULT:     -10.5      1.955      2.557
REMARK  Name = Fragment
REMARK  5 active torsions:
REMARK  status: ('A' for Active; 'I' for Inactive)
REMARK    1  A    between atoms: C_3  and  C_17
REMARK    2  A    between atoms: C_5  and  C_7
REMARK    3  A    between atoms: C_7  and  C_8
REMARK    4  A    between atoms: C_9  and  C_10
REMARK    5  A    between atoms: C_13  and  C_21
REMARK                            x       y       z     vdW  Elec       q    Type
REMARK                         _______ _______ _______ _____ _____    ______ ____
ROOT
ATOM      7  C   UNL     1     -11.601 -43.871  28.105  0.00  0.00    +0.000 C 
ATOM     16  O   UNL     1     -10.729 -43.138  27.674  0.00  0.00    +0.000 OA
ENDROOT
BRANCH   7   5
ATOM      1  C   UNL     1     -11.975 -46.184  30.885  0.00  0.00    +0.000 A 
ATOM      2  C   UNL     1     -10.739 -46.171  31.399  0.00  0.00    +0.000 A 
ATOM      3  C   UNL     1      -9.789 -45.408  30.836  0.00  0.00    +0.000 A 
ATOM      4  C   UNL     1     -10.121 -44.672  29.758  0.00  0.00    +0.000 A 
ATOM      5  C   UNL     1     -11.356 -44.656  29.208  0.00  0.00    +0.000 A 
ATOM      6  C   UNL     1     -12.277 -45.439  29.809  0.00  0.00    +0.000 A 
BRANCH   3  17
ATOM     17  C   UNL     1      -8.379 -45.363  31.382  0.00  0.00    +0.000 C 
ATOM     18  F   UNL     1      -7.871 -46.557  31.638  0.00  0.00    +0.000 F 
ATOM     19  F   UNL     1      -7.571 -44.759  30.524  0.00  0.00    +0.000 F 
ATOM     20  F   UNL     1      -8.342 -44.664  32.507  0.00  0.00    +0.000 F 
ENDBRANCH   3  17
ENDBRANCH   7   5
BRANCH   7   8
ATOM      8  C   UNL     1     -12.813 -43.890  27.469  0.00  0.00    +0.000 C 
ATOM      9  C   UNL     1     -13.273 -42.900  26.674  0.00  0.00    +0.000 C 
BRANCH   9  10
ATOM     10  C   UNL     1     -14.452 -42.844  26.015  0.00  0.00    +0.000 A 
ATOM     11  C   UNL     1     -15.596 -42.786  26.727  0.00  0.00    +0.000 A 
ATOM     12  C   UNL     1     -16.803 -42.729  26.141  0.00  0.00    +0.000 A 
ATOM     13  C   UNL     1     -16.924 -42.727  24.804  0.00  0.00    +0.000 A 
ATOM     14  C   UNL     1     -15.791 -42.784  24.084  0.00  0.00    +0.000 A 
ATOM     15  C   UNL     1     -14.586 -42.841  24.674  0.00  0.00    +0.000 A 
BRANCH  13  21
ATOM     21  C   UNL     1     -18.264 -42.663  24.110  0.00  0.00    +0.000 C 
ATOM     22  F   UNL     1     -19.140 -43.547  24.560  0.00  0.00    +0.000 F 
ATOM     23  F   UNL     1     -18.798 -41.459  24.252  0.00  0.00    +0.000 F 
ATOM     24  F   UNL     1     -18.118 -42.869  22.810  0.00  0.00    +0.000 F 
ENDBRANCH  13  21
ENDBRANCH   9  10
ENDBRANCH   7   8
TORSDOF 5
ENDMDL
MODEL 7
REMARK VINA RESULT:     -10.4      4.650      9.775
REMARK  Name = Fragment
REMARK  5 active torsions:
REMARK  status: ('A' for Active; 'I' for Inactive)
REMARK    1  A    between atoms: C_3  and  C_17
REMARK    2  A    between atoms: C_5  and  C_7
REMARK    3  A    between atoms: C_7  and  C_8
REMARK    4  A    between atoms: C_9  and  C_10
REMARK    5  A    between atoms: C_13  and  C_21
REMARK                            x       y       z     vdW  Elec       q    Type
REMARK                         _______ _______ _______ _____ _____    ______ ____
ROOT
ATOM      7  C   UNL     1     -17.945 -41.739  23.092  0.00  0.00    +0.000 C 
ATOM     16  O   UNL     1     -17.498 -41.212  22.089  0.00  0.00    +0.000 OA
ENDROOT
BRANCH   7   5
ATOM      1  C   UNL     1     -21.415 -40.666  23.258  0.00  0.00    +0.000 A 
ATOM      2  C   UNL     1     -21.655 -40.772  24.570  0.00  0.00    +0.000 A 
ATOM      3  C   UNL     1     -20.683 -41.193  25.395  0.00  0.00    +0.000 A 
ATOM      4  C   UNL     1     -19.485 -41.498  24.862  0.00  0.00    +0.000 A 
ATOM      5  C   UNL     1     -19.201 -41.405  23.544  0.00  0.00    +0.000 A 
ATOM      6  C   UNL     1     -20.209 -40.977  22.755  0.00  0.00    +0.000 A 
BRANCH   3  17
ATOM     17  C   UNL     1     -20.909 -41.329  26.885  0.00  0.00    +0.000 C 
ATOM     18  F   UNL     1     -21.735 -40.422  27.380  0.00  0.00    +0.000 F 
ATOM     19  F   UNL     1     -21.408 -42.522  27.170  0.00  0.00    +0.000 F 
ATOM     20  F   UNL     1     -19.761 -41.222  27.538  0.00  0.00    +0.000 F 
ENDBRANCH   3  17
ENDBRANCH   7   5
BRANCH   7   8
ATOM      8  C   UNL     1     -17.172 -42.661  23.746  0.00  0.00    +0.000 C 
ATOM      9  C   UNL     1     -16.273 -42.357  24.707  0.00  0.00    +0.000 C 
BRANCH   9  10
ATOM     10  C   UNL     1     -15.476 -43.204  25.396  0.00  0.00    +0.000 A 
ATOM     11  C   UNL     1     -14.812 -44.167  24.725  0.00  0.00    +0.000 A 
ATOM     12  C   UNL     1     -14.004 -45.044  25.342  0.00  0.00    +0.000 A 
ATOM     13  C   UNL     1     -13.820 -44.998  26.672  0.00  0.00    +0.000 A 
ATOM     14  C   UNL     1     -14.475 -44.043  27.351  0.00  0.00    +0.000 A 
ATOM     15  C   UNL     1     -15.283 -43.168  26.730  0.00  0.00    +0.000 A 
BRANCH  13  21
ATOM     21  C   UNL     1     -12.918 -45.967  27.401  0.00  0.00    +0.000 C 
ATOM     22  F   UNL     1     -13.410 -46.386  28.555  0.00  0.00    +0.000 F 
ATOM     23  F   UNL     1     -12.689 -47.034  26.650  0.00  0.00    +0.000 F 
ATOM     24  F   UNL     1     -11.744 -45.407  27.643  0.00  0.00    +0.000 F 
ENDBRANCH  13  21
ENDBRANCH   9  10
ENDBRANCH   7   8
TORSDOF 5
ENDMDL
MODEL 8
REMARK VINA RESULT:     -10.3      1.800      9.193
REMARK  Name = Fragment
REMARK  5 active torsions:
REMARK  status: ('A' for Active; 'I' for Inactive)
REMARK    1  A    between atoms: C_3  and  C_17
REMARK    2  A    between atoms: C_5  and  C_7
REMARK    3  A    between atoms: C_7  and  C_8
REMARK    4  A    between atoms: C_9  and  C_10
REMARK    5  A    between atoms: C_13  and  C_21
REMARK                            x       y       z     vdW  Elec       q    Type
REMARK                         _______ _______ _______ _____ _____    ______ ____
ROOT
ATOM      7  C   UNL     1     -15.164 -43.555  27.438  0.00  0.00    +0.000 C 
ATOM     16  O   UNL     1     -16.004 -43.259  28.270  0.00  0.00    +0.000 OA
ENDROOT
BRANCH   7   5
ATOM      1  C   UNL     1     -15.030 -43.837  23.816  0.00  0.00    +0.000 A 
ATOM      2  C   UNL     1     -16.183 -43.253  23.469  0.00  0.00    +0.000 A 
ATOM      3  C   UNL     1     -17.000 -42.770  24.419  0.00  0.00    +0.000 A 
ATOM      4  C   UNL     1     -16.621 -42.893  25.705  0.00  0.00    +0.000 A 
ATOM      5  C   UNL     1     -15.466 -43.476  26.098  0.00  0.00    +0.000 A 
ATOM      6  C   UNL     1     -14.679 -43.946  25.107  0.00  0.00    +0.000 A 
BRANCH   3  17
ATOM     17  C   UNL     1     -18.313 -42.102  24.073  0.00  0.00    +0.000 C 
ATOM     18  F   UNL     1     -19.234 -42.941  23.631  0.00  0.00    +0.000 F 
ATOM     19  F   UNL     1     -18.810 -41.485  25.134  0.00  0.00    +0.000 F 
ATOM     20  F   UNL     1     -18.130 -41.181  23.139  0.00  0.00    +0.000 F 
ENDBRANCH   3  17
ENDBRANCH   7   5
BRANCH   7   8
ATOM      8  C   UNL     1     -13.931 -43.963  27.870  0.00  0.00    +0.000 C 
ATOM      9  C   UNL     1     -13.726 -44.817  28.896  0.00  0.00    +0.000 C 
BRANCH   9  10
ATOM     10  C   UNL     1     -12.546 -45.266  29.380  0.00  0.00    +0.000 A 
ATOM     11  C   UNL     1     -12.425 -45.486  30.705  0.00  0.00    +0.000 A 
ATOM     12  C   UNL     1     -11.285 -45.931  31.257  0.00  0.00    +0.000 A 
ATOM     13  C   UNL     1     -10.202 -46.179  30.502  0.00  0.00    +0.000 A 
ATOM     14  C   UNL     1     -10.310 -45.964  29.181  0.00  0.00    +0.000 A 
ATOM     15  C   UNL     1     -11.453 -45.519  28.633  0.00  0.00    +0.000 A 
BRANCH  13  21
ATOM     21  C   UNL     1      -8.902 -46.680  31.087  0.00  0.00    +0.000 C 
ATOM     22  F   UNL     1      -8.461 -45.956  32.103  0.00  0.00    +0.000 F 
ATOM     23  F   UNL     1      -9.042 -47.927  31.513  0.00  0.00    +0.000 F 
ATOM     24  F   UNL     1      -7.957 -46.692  30.161  0.00  0.00    +0.000 F 
ENDBRANCH  13  21
ENDBRANCH   9  10
ENDBRANCH   7   8
TORSDOF 5
ENDMDL
MODEL 9
REMARK VINA RESULT:     -10.1      2.814      3.709
REMARK  Name = Fragment
REMARK  5 active torsions:
REMARK  status: ('A' for Active; 'I' for Inactive)
REMARK    1  A    between atoms: C_3  and  C_17
REMARK    2  A    between atoms: C_5  and  C_7
REMARK    3  A    between atoms: C_7  and  C_8
REMARK    4  A    between atoms: C_9  and  C_10
REMARK    5  A    between atoms: C_13  and  C_21
REMARK                            x       y       z     vdW  Elec       q    Type
REMARK                         _______ _______ _______ _____ _____    ______ ____
ROOT
ATOM      7  C   UNL     1     -11.092 -43.224  27.885  0.00  0.00    +0.000 C 
ATOM     16  O   UNL     1     -10.068 -42.645  27.570  0.00  0.00    +0.000 OA
ENDROOT
BRANCH   7   5
ATOM      1  C   UNL     1     -10.052 -46.056  29.914  0.00  0.00    +0.000 A 
ATOM      2  C   UNL     1     -11.101 -46.184  30.735  0.00  0.00    +0.000 A 
ATOM      3  C   UNL     1     -12.143 -45.345  30.623  0.00  0.00    +0.000 A 
ATOM      4  C   UNL     1     -12.093 -44.392  29.673  0.00  0.00    +0.000 A 
ATOM      5  C   UNL     1     -11.053 -44.229  28.824  0.00  0.00    +0.000 A 
ATOM      6  C   UNL     1     -10.029 -45.095  28.976  0.00  0.00    +0.000 A 
BRANCH   3  17
ATOM     17  C   UNL     1     -13.350 -45.452  31.529  0.00  0.00    +0.000 C 
ATOM     18  F   UNL     1     -13.197 -44.839  32.691  0.00  0.00    +0.000 F 
ATOM     19  F   UNL     1     -14.417 -44.933  30.940  0.00  0.00    +0.000 F 
ATOM     20  F   UNL     1     -13.626 -46.723  31.782  0.00  0.00    +0.000 F 
ENDBRANCH   3  17
ENDBRANCH   7   5
BRANCH   7   8
ATOM      8  C   UNL     1     -12.265 -42.851  27.285  0.00  0.00    +0.000 C 
ATOM      9  C   UNL     1     -13.164 -43.715  26.766  0.00  0.00    +0.000 C 
BRANCH   9  10
ATOM     10  C   UNL     1     -14.339 -43.427  26.162  0.00  0.00    +0.000 A 
ATOM     11  C   UNL     1     -15.399 -43.088  26.924  0.00  0.00    +0.000 A 
ATOM     12  C   UNL     1     -16.596 -42.790  26.394  0.00  0.00    +0.000 A 
ATOM     13  C   UNL     1     -16.791 -42.817  25.066  0.00  0.00    +0.000 A 
ATOM     14  C   UNL     1     -15.743 -43.153  24.296  0.00  0.00    +0.000 A 
ATOM     15  C   UNL     1     -14.547 -43.451  24.830  0.00  0.00    +0.000 A 
BRANCH  13  21
ATOM     21  C   UNL     1     -18.123 -42.487  24.434  0.00  0.00    +0.000 C 
ATOM     22  F   UNL     1     -18.737 -41.457  24.991  0.00  0.00    +0.000 F 
ATOM     23  F   UNL     1     -17.965 -42.214  23.147  0.00  0.00    +0.000 F 
ATOM     24  F   UNL     1     -18.937 -43.529  24.509  0.00  0.00    +0.000 F 
ENDBRANCH  13  21
ENDBRANCH   9  10
ENDBRANCH   7   8
TORSDOF 5
ENDMDL
MODEL 10
REMARK VINA RESULT:      -9.4      4.071      9.405
REMARK  Name = Fragment
REMARK  5 active torsions:
REMARK  status: ('A' for Active; 'I' for Inactive)
REMARK    1  A    between atoms: C_3  and  C_17
REMARK    2  A    between atoms: C_5  and  C_7
REMARK    3  A    between atoms: C_7  and  C_8
REMARK    4  A    between atoms: C_9  and  C_10
REMARK    5  A    between atoms: C_13  and  C_21
REMARK                            x       y       z     vdW  Elec       q    Type
REMARK                         _______ _______ _______ _____ _____    ______ ____
ROOT
ATOM      7  C   UNL     1     -17.515 -42.530  25.239  0.00  0.00    +0.000 C 
ATOM     16  O   UNL     1     -17.288 -42.217  24.084  0.00  0.00    +0.000 OA
ENDROOT
BRANCH   7   5
ATOM      1  C   UNL     1     -20.652 -41.574  26.808  0.00  0.00    +0.000 A 
ATOM      2  C   UNL     1     -21.392 -42.668  26.592  0.00  0.00    +0.000 A 
ATOM      3  C   UNL     1     -20.864 -43.714  25.936  0.00  0.00    +0.000 A 
ATOM      4  C   UNL     1     -19.589 -43.620  25.512  0.00  0.00    +0.000 A 
ATOM      5  C   UNL     1     -18.808 -42.534  25.709  0.00  0.00    +0.000 A 
ATOM      6  C   UNL     1     -19.383 -41.509  26.373  0.00  0.00    +0.000 A 
BRANCH   3  17
ATOM     17  C   UNL     1     -21.663 -44.971  25.670  0.00  0.00    +0.000 C 
ATOM     18  F   UNL     1     -22.538 -44.844  24.686  0.00  0.00    +0.000 F 
ATOM     19  F   UNL     1     -20.855 -45.974  25.361  0.00  0.00    +0.000 F 
ATOM     20  F   UNL     1     -22.332 -45.331  26.755  0.00  0.00    +0.000 F 
ENDBRANCH   3  17
ENDBRANCH   7   5
BRANCH   7   8
ATOM      8  C   UNL     1     -16.461 -42.873  26.043  0.00  0.00    +0.000 C 
ATOM      9  C   UNL     1     -15.306 -43.413  25.598  0.00  0.00    +0.000 C 
BRANCH   9  10
ATOM     10  C   UNL     1     -14.225 -43.777  26.324  0.00  0.00    +0.000 A 
ATOM     11  C   UNL     1     -13.262 -42.864  26.563  0.00  0.00    +0.000 A 
ATOM     12  C   UNL     1     -12.162 -43.153  27.276  0.00  0.00    +0.000 A 
ATOM     13  C   UNL     1     -11.971 -44.380  27.787  0.00  0.00    +0.000 A 
ATOM     14  C   UNL     1     -12.923 -45.298  27.556  0.00  0.00    +0.000 A 
ATOM     15  C   UNL     1     -14.023 -45.005  26.842  0.00  0.00    +0.000 A 
BRANCH  13  21
ATOM     21  C   UNL     1     -10.746 -44.742  28.594  0.00  0.00    +0.000 C 
ATOM     22  F   UNL     1      -9.707 -43.955  28.367  0.00  0.00    +0.000 F 
ATOM     23  F   UNL     1     -11.017 -44.686  29.890  0.00  0.00    +0.000 F 
ATOM     24  F   UNL     1     -10.374 -45.985  28.331  0.00  0.00    +0.000 F 
ENDBRANCH  13  21
ENDBRANCH   9  10
ENDBRANCH   7   8
TORSDOF 5
ENDMDL
