MODEL 1
REMARK VINA RESULT:     -10.4      0.000      0.000
REMARK  Name = Fragment
REMARK  9 active torsions:
REMARK  status: ('A' for Active; 'I' for Inactive)
REMARK    1  A    between atoms: C_1  and  C_2
REMARK    2  A    between atoms: C_2  and  C_4
REMARK    3  A    between atoms: C_6  and  C_17
REMARK    4  A    between atoms: C_7  and  O_22
REMARK    5  A    between atoms: C_10  and  C_11
REMARK    6  A    between atoms: C_13  and  O_20
REMARK    7  A    between atoms: C_14  and  O_18
REMARK    8  A    between atoms: O_18  and  C_19
REMARK    9  A    between atoms: O_20  and  C_21
REMARK                            x       y       z     vdW  Elec       q    Type
REMARK                         _______ _______ _______ _____ _____    ______ ____
ROOT
ATOM      1  C   UNL     1     -14.268 -43.715  26.089  0.00  0.00    +0.000 C 
ATOM     10  C   UNL     1     -13.901 -44.966  26.436  0.00  0.00    +0.000 C 
ENDROOT
BRANCH  10  11
ATOM     11  C   UNL     1     -13.251 -45.359  27.554  0.00  0.00    +0.000 A 
ATOM     12  C   UNL     1     -13.733 -45.016  28.762  0.00  0.00    +0.000 A 
ATOM     13  C   UNL     1     -13.182 -45.341  29.952  0.00  0.00    +0.000 A 
ATOM     14  C   UNL     1     -12.043 -46.079  29.947  0.00  0.00    +0.000 A 
ATOM     15  C   UNL     1     -11.550 -46.429  28.741  0.00  0.00    +0.000 A 
ATOM     16  C   UNL     1     -12.123 -46.088  27.578  0.00  0.00    +0.000 A 
BRANCH  14  18
ATOM     18  O   UNL     1     -11.435 -46.442  31.124  0.00  0.00    +0.000 OA
ATOM     19  C   UNL     1     -10.112 -46.041  31.393  0.00  0.00    +0.000 C 
ENDBRANCH  14  18
BRANCH  13  20
ATOM     20  O   UNL     1     -13.861 -44.873  31.059  0.00  0.00    +0.000 OA
ATOM     21  C   UNL     1     -13.331 -43.869  31.889  0.00  0.00    +0.000 C 
ENDBRANCH  13  20
ENDBRANCH  10  11
BRANCH   1   2
ATOM      2  C   UNL     1     -14.928 -43.392  24.934  0.00  0.00    +0.000 C 
ATOM      3  O   UNL     1     -14.344 -43.527  23.874  0.00  0.00    +0.000 OA
BRANCH   2   4
ATOM      4  C   UNL     1     -16.222 -42.924  24.955  0.00  0.00    +0.000 A 
ATOM      5  C   UNL     1     -16.859 -42.764  26.135  0.00  0.00    +0.000 A 
ATOM      6  C   UNL     1     -18.122 -42.313  26.244  0.00  0.00    +0.000 A 
ATOM      7  C   UNL     1     -18.814 -41.996  25.135  0.00  0.00    +0.000 A 
ATOM      8  C   UNL     1     -18.200 -42.149  23.952  0.00  0.00    +0.000 A 
ATOM      9  C   UNL     1     -16.939 -42.600  23.860  0.00  0.00    +0.000 A 
ATOM     17  C   UNL     1     -18.779 -42.155  27.599  0.00  0.00    +0.000 C 
BRANCH   7  22
ATOM     22  O   UNL     1     -20.094 -41.536  25.191  0.00  0.00    +0.000 OA
ATOM     23  H   UNL     1     -20.349 -41.195  24.319  0.00  0.00    +0.000 HD
ENDBRANCH   7  22
ENDBRANCH   2   4
ENDBRANCH   1   2
TORSDOF 6
ENDMDL
MODEL 2
REMARK VINA RESULT:     -10.2      1.654      2.201
REMARK  Name = Fragment
REMARK  9 active torsions:
REMARK  status: ('A' for Active; 'I' for Inactive)
REMARK    1  A    between atoms: C_1  and  C_2
REMARK    2  A    between atoms: C_2  and  C_4
REMARK    3  A    between atoms: C_6  and  C_17
REMARK    4  A    between atoms: C_7  and  O_22
REMARK    5  A    between atoms: C_10  and  C_11
REMARK    6  A    between atoms: C_13  and  O_20
REMARK    7  A    between atoms: C_14  and  O_18
REMARK    8  A    between atoms: O_18  and  C_19
REMARK    9  A    between atoms: O_20  and  C_21
REMARK                            x       y       z     vdW  Elec       q    Type
REMARK                         _______ _______ _______ _____ _____    ______ ____
ROOT
ATOM      1  C   UNL     1     -14.183 -43.494  25.903  0.00  0.00    +0.000 C 
ATOM     10  C   UNL     1     -14.015 -44.670  26.545  0.00  0.00    +0.000 C 
ENDROOT
BRANCH  10  11
ATOM     11  C   UNL     1     -12.963 -45.057  27.301  0.00  0.00    +0.000 A 
ATOM     12  C   UNL     1     -12.262 -44.139  27.990  0.00  0.00    +0.000 A 
ATOM     13  C   UNL     1     -11.195 -44.391  28.779  0.00  0.00    +0.000 A 
ATOM     14  C   UNL     1     -10.781 -45.678  28.899  0.00  0.00    +0.000 A 
ATOM     15  C   UNL     1     -11.477 -46.608  28.213  0.00  0.00    +0.000 A 
ATOM     16  C   UNL     1     -12.532 -46.322  27.438  0.00  0.00    +0.000 A 
BRANCH  14  18
ATOM     18  O   UNL     1      -9.702 -45.999  29.687  0.00  0.00    +0.000 OA
ATOM     19  C   UNL     1      -9.891 -46.365  31.034  0.00  0.00    +0.000 C 
ENDBRANCH  14  18
BRANCH  13  20
ATOM     20  O   UNL     1     -10.639 -43.282  29.385  0.00  0.00    +0.000 OA
ATOM     21  C   UNL     1      -9.618 -42.533  28.773  0.00  0.00    +0.000 C 
ENDBRANCH  13  20
ENDBRANCH  10  11
BRANCH   1   2
ATOM      2  C   UNL     1     -15.281 -43.171  25.152  0.00  0.00    +0.000 C 
ATOM      3  O   UNL     1     -15.191 -43.228  23.939  0.00  0.00    +0.000 OA
BRANCH   2   4
ATOM      4  C   UNL     1     -16.464 -42.789  25.740  0.00  0.00    +0.000 A 
ATOM      5  C   UNL     1     -17.528 -42.476  24.969  0.00  0.00    +0.000 A 
ATOM      6  C   UNL     1     -18.719 -42.093  25.465  0.00  0.00    +0.000 A 
ATOM      7  C   UNL     1     -18.892 -42.008  26.796  0.00  0.00    +0.000 A 
ATOM      8  C   UNL     1     -17.847 -42.315  27.580  0.00  0.00    +0.000 A 
ATOM      9  C   UNL     1     -16.664 -42.695  27.070  0.00  0.00    +0.000 A 
ATOM     17  C   UNL     1     -19.873 -41.756  24.544  0.00  0.00    +0.000 C 
BRANCH   7  22
ATOM     22  O   UNL     1     -20.076 -41.627  27.347  0.00  0.00    +0.000 OA
ATOM     23  H   UNL     1     -20.755 -42.288  27.134  0.00  0.00    +0.000 HD
ENDBRANCH   7  22
ENDBRANCH   2   4
ENDBRANCH   1   2
TORSDOF 6
ENDMDL
MODEL 3
REMARK VINA RESULT:      -9.9      2.059      8.319
REMARK  Name = Fragment
REMARK  9 active torsions:
REMARK  status: ('A' for Active; 'I' for Inactive)
REMARK    1  A    between atoms: C_1  and  C_2
REMARK    2  A    between atoms: C_2  and  C_4
REMARK    3  A    between atoms: C_6  and  C_17
REMARK    4  A    between atoms: C_7  and  O_22
REMARK    5  A    between atoms: C_10  and  C_11
REMARK    6  A    between atoms: C_13  and  O_20
REMARK    7  A    between atoms: C_14  and  O_18
REMARK    8  A    between atoms: O_18  and  C_19
REMARK    9  A    between atoms: O_20  and  C_21
REMARK                            x       y       z     vdW  Elec       q    Type
REMARK                         _______ _______ _______ _____ _____    ______ ____
ROOT
ATOM      1  C   UNL     1     -12.961 -45.156  30.089  0.00  0.00    +0.000 C 
ATOM     10  C   UNL     1     -13.206 -45.577  28.830  0.00  0.00    +0.000 C 
ENDROOT
BRANCH  10  11
ATOM     11  C   UNL     1     -13.839 -44.906  27.841  0.00  0.00    +0.000 A 
ATOM     12  C   UNL     1     -14.775 -43.990  28.148  0.00  0.00    +0.000 A 
ATOM     13  C   UNL     1     -15.478 -43.254  27.260  0.00  0.00    +0.000 A 
ATOM     14  C   UNL     1     -15.232 -43.442  25.939  0.00  0.00    +0.000 A 
ATOM     15  C   UNL     1     -14.295 -44.359  25.619  0.00  0.00    +0.000 A 
ATOM     16  C   UNL     1     -13.615 -45.073  26.527  0.00  0.00    +0.000 A 
BRANCH  14  18
ATOM     18  O   UNL     1     -15.914 -42.724  24.987  0.00  0.00    +0.000 OA
ATOM     19  C   UNL     1     -16.049 -43.227  23.679  0.00  0.00    +0.000 C 
ENDBRANCH  14  18
BRANCH  13  20
ATOM     20  O   UNL     1     -16.386 -42.375  27.817  0.00  0.00    +0.000 OA
ATOM     21  C   UNL     1     -17.070 -42.669  29.010  0.00  0.00    +0.000 C 
ENDBRANCH  13  20
ENDBRANCH  10  11
BRANCH   1   2
ATOM      2  C   UNL     1     -12.311 -45.894  31.041  0.00  0.00    +0.000 C 
ATOM      3  O   UNL     1     -12.956 -46.692  31.697  0.00  0.00    +0.000 OA
BRANCH   2   4
ATOM      4  C   UNL     1     -10.961 -45.748  31.262  0.00  0.00    +0.000 A 
ATOM      5  C   UNL     1     -10.496 -44.635  31.870  0.00  0.00    +0.000 A 
ATOM      6  C   UNL     1      -9.193 -44.415  32.123  0.00  0.00    +0.000 A 
ATOM      7  C   UNL     1      -8.279 -45.335  31.763  0.00  0.00    +0.000 A 
ATOM      8  C   UNL     1      -8.721 -46.447  31.158  0.00  0.00    +0.000 A 
ATOM      9  C   UNL     1     -10.024 -46.653  30.912  0.00  0.00    +0.000 A 
ATOM     17  C   UNL     1      -8.737 -43.145  32.809  0.00  0.00    +0.000 C 
BRANCH   7  22
ATOM     22  O   UNL     1      -6.950 -45.159  31.996  0.00  0.00    +0.000 OA
ATOM     23  H   UNL     1      -6.442 -45.618  31.308  0.00  0.00    +0.000 HD
ENDBRANCH   7  22
ENDBRANCH   2   4
ENDBRANCH   1   2
TORSDOF 6
ENDMDL
MODEL 4
REMARK VINA RESULT:      -9.5      2.439      7.942
REMARK  Name = Fragment
REMARK  9 active torsions:
REMARK  status: ('A' for Active; 'I' for Inactive)
REMARK    1  A    between atoms: C_1  and  C_2
REMARK    2  A    between atoms: C_2  and  C_4
REMARK    3  A    between atoms: C_6  and  C_17
REMARK    4  A    between atoms: C_7  and  O_22
REMARK    5  A    between atoms: C_10  and  C_11
REMARK    6  A    between atoms: C_13  and  O_20
REMARK    7  A    between atoms: C_14  and  O_18
REMARK    8  A    between atoms: O_18  and  C_19
REMARK    9  A    between atoms: O_20  and  C_21
REMARK                            x       y       z     vdW  Elec       q    Type
REMARK                         _______ _______ _______ _____ _____    ______ ____
ROOT
ATOM      1  C   UNL     1     -13.788 -44.384  26.690  0.00  0.00    +0.000 C 
ATOM     10  C   UNL     1     -14.794 -43.487  26.756  0.00  0.00    +0.000 C 
ENDROOT
BRANCH  10  11
ATOM     11  C   UNL     1     -15.625 -43.099  25.763  0.00  0.00    +0.000 A 
ATOM     12  C   UNL     1     -16.873 -42.690  26.058  0.00  0.00    +0.000 A 
ATOM     13  C   UNL     1     -17.798 -42.279  25.164  0.00  0.00    +0.000 A 
ATOM     14  C   UNL     1     -17.458 -42.272  23.851  0.00  0.00    +0.000 A 
ATOM     15  C   UNL     1     -16.210 -42.681  23.543  0.00  0.00    +0.000 A 
ATOM     16  C   UNL     1     -15.315 -43.083  24.457  0.00  0.00    +0.000 A 
BRANCH  14  18
ATOM     18  O   UNL     1     -18.356 -41.864  22.894  0.00  0.00    +0.000 OA
ATOM     19  C   UNL     1     -18.051 -40.779  22.051  0.00  0.00    +0.000 C 
ENDBRANCH  14  18
BRANCH  13  20
ATOM     20  O   UNL     1     -19.012 -41.905  25.708  0.00  0.00    +0.000 OA
ATOM     21  C   UNL     1     -19.339 -42.171  27.050  0.00  0.00    +0.000 C 
ENDBRANCH  13  20
ENDBRANCH  10  11
BRANCH   1   2
ATOM      2  C   UNL     1     -12.983 -44.728  27.743  0.00  0.00    +0.000 C 
ATOM      3  O   UNL     1     -13.309 -45.674  28.437  0.00  0.00    +0.000 OA
BRANCH   2   4
ATOM      4  C   UNL     1     -11.831 -44.029  28.022  0.00  0.00    +0.000 A 
ATOM      5  C   UNL     1     -10.939 -44.529  28.904  0.00  0.00    +0.000 A 
ATOM      6  C   UNL     1      -9.791 -43.911  29.232  0.00  0.00    +0.000 A 
ATOM      7  C   UNL     1      -9.485 -42.728  28.667  0.00  0.00    +0.000 A 
ATOM      8  C   UNL     1     -10.358 -42.214  27.788  0.00  0.00    +0.000 A 
ATOM      9  C   UNL     1     -11.501 -42.844  27.471  0.00  0.00    +0.000 A 
ATOM     17  C   UNL     1      -8.832 -44.526  30.230  0.00  0.00    +0.000 C 
BRANCH   7  22
ATOM     22  O   UNL     1      -8.336 -42.063  28.965  0.00  0.00    +0.000 OA
ATOM     23  H   UNL     1      -7.997 -42.377  29.819  0.00  0.00    +0.000 HD
ENDBRANCH   7  22
ENDBRANCH   2   4
ENDBRANCH   1   2
TORSDOF 6
ENDMDL
MODEL 5
REMARK VINA RESULT:      -9.4      2.572      7.926
REMARK  Name = Fragment
REMARK  9 active torsions:
REMARK  status: ('A' for Active; 'I' for Inactive)
REMARK    1  A    between atoms: C_1  and  C_2
REMARK    2  A    between atoms: C_2  and  C_4
REMARK    3  A    between atoms: C_6  and  C_17
REMARK    4  A    between atoms: C_7  and  O_22
REMARK    5  A    between atoms: C_10  and  C_11
REMARK    6  A    between atoms: C_13  and  O_20
REMARK    7  A    between atoms: C_14  and  O_18
REMARK    8  A    between atoms: O_18  and  C_19
REMARK    9  A    between atoms: O_20  and  C_21
REMARK                            x       y       z     vdW  Elec       q    Type
REMARK                         _______ _______ _______ _____ _____    ______ ____
ROOT
ATOM      1  C   UNL     1     -13.889 -44.470  27.757  0.00  0.00    +0.000 C 
ATOM     10  C   UNL     1     -14.361 -43.775  26.701  0.00  0.00    +0.000 C 
ENDROOT
BRANCH  10  11
ATOM     11  C   UNL     1     -15.593 -43.240  26.545  0.00  0.00    +0.000 A 
ATOM     12  C   UNL     1     -16.106 -43.095  25.310  0.00  0.00    +0.000 A 
ATOM     13  C   UNL     1     -17.319 -42.577  25.017  0.00  0.00    +0.000 A 
ATOM     14  C   UNL     1     -18.101 -42.162  26.045  0.00  0.00    +0.000 A 
ATOM     15  C   UNL     1     -17.597 -42.304  27.289  0.00  0.00    +0.000 A 
ATOM     16  C   UNL     1     -16.387 -42.822  27.544  0.00  0.00    +0.000 A 
BRANCH  14  18
ATOM     18  O   UNL     1     -19.345 -41.627  25.812  0.00  0.00    +0.000 OA
ATOM     19  C   UNL     1     -20.272 -41.500  26.865  0.00  0.00    +0.000 C 
ENDBRANCH  14  18
BRANCH  13  20
ATOM     20  O   UNL     1     -17.626 -42.530  23.671  0.00  0.00    +0.000 OA
ATOM     21  C   UNL     1     -16.868 -41.772  22.761  0.00  0.00    +0.000 C 
ENDBRANCH  13  20
ENDBRANCH  10  11
BRANCH   1   2
ATOM      2  C   UNL     1     -12.623 -44.985  27.845  0.00  0.00    +0.000 C 
ATOM      3  O   UNL     1     -12.472 -46.183  27.692  0.00  0.00    +0.000 OA
BRANCH   2   4
ATOM      4  C   UNL     1     -11.539 -44.177  28.099  0.00  0.00    +0.000 A 
ATOM      5  C   UNL     1     -10.598 -44.574  28.983  0.00  0.00    +0.000 A 
ATOM      6  C   UNL     1      -9.509 -43.845  29.288  0.00  0.00    +0.000 A 
ATOM      7  C   UNL     1      -9.318 -42.652  28.696  0.00  0.00    +0.000 A 
ATOM      8  C   UNL     1     -10.241 -42.240  27.814  0.00  0.00    +0.000 A 
ATOM      9  C   UNL     1     -11.322 -42.979  27.521  0.00  0.00    +0.000 A 
ATOM     17  C   UNL     1      -8.491 -44.348  30.290  0.00  0.00    +0.000 C 
BRANCH   7  22
ATOM     22  O   UNL     1      -8.233 -41.878  28.970  0.00  0.00    +0.000 OA
ATOM     23  H   UNL     1      -7.730 -42.278  29.697  0.00  0.00    +0.000 HD
ENDBRANCH   7  22
ENDBRANCH   2   4
ENDBRANCH   1   2
TORSDOF 6
ENDMDL
MODEL 6
REMARK VINA RESULT:      -9.3      1.913      2.558
REMARK  Name = Fragment
REMARK  9 active torsions:
REMARK  status: ('A' for Active; 'I' for Inactive)
REMARK    1  A    between atoms: C_1  and  C_2
REMARK    2  A    between atoms: C_2  and  C_4
REMARK    3  A    between atoms: C_6  and  C_17
REMARK    4  A    between atoms: C_7  and  O_22
REMARK    5  A    between atoms: C_10  and  C_11
REMARK    6  A    between atoms: C_13  and  O_20
REMARK    7  A    between atoms: C_14  and  O_18
REMARK    8  A    between atoms: O_18  and  C_19
REMARK    9  A    between atoms: O_20  and  C_21
REMARK                            x       y       z     vdW  Elec       q    Type
REMARK                         _______ _______ _______ _____ _____    ______ ____
ROOT
ATOM      1  C   UNL     1     -14.919 -43.357  26.622  0.00  0.00    +0.000 C 
ATOM     10  C   UNL     1     -13.604 -43.178  26.376  0.00  0.00    +0.000 C 
ENDROOT
BRANCH  10  11
ATOM     11  C   UNL     1     -12.566 -43.400  27.214  0.00  0.00    +0.000 A 
ATOM     12  C   UNL     1     -12.593 -44.460  28.043  0.00  0.00    +0.000 A 
ATOM     13  C   UNL     1     -11.627 -44.794  28.926  0.00  0.00    +0.000 A 
ATOM     14  C   UNL     1     -10.526 -44.003  28.997  0.00  0.00    +0.000 A 
ATOM     15  C   UNL     1     -10.489 -42.938  28.170  0.00  0.00    +0.000 A 
ATOM     16  C   UNL     1     -11.467 -42.635  27.305  0.00  0.00    +0.000 A 
BRANCH  14  18
ATOM     18  O   UNL     1      -9.509 -44.291  29.875  0.00  0.00    +0.000 OA
ATOM     19  C   UNL     1      -8.451 -43.380  30.056  0.00  0.00    +0.000 C 
ENDBRANCH  14  18
BRANCH  13  20
ATOM     20  O   UNL     1     -11.881 -45.929  29.670  0.00  0.00    +0.000 OA
ATOM     21  C   UNL     1     -13.131 -46.162  30.271  0.00  0.00    +0.000 C 
ENDBRANCH  13  20
ENDBRANCH  10  11
BRANCH   1   2
ATOM      2  C   UNL     1     -15.918 -43.110  25.719  0.00  0.00    +0.000 C 
ATOM      3  O   UNL     1     -15.698 -43.317  24.539  0.00  0.00    +0.000 OA
BRANCH   2   4
ATOM      4  C   UNL     1     -17.146 -42.638  26.121  0.00  0.00    +0.000 A 
ATOM      5  C   UNL     1     -18.049 -42.243  25.198  0.00  0.00    +0.000 A 
ATOM      6  C   UNL     1     -19.270 -41.770  25.507  0.00  0.00    +0.000 A 
ATOM      7  C   UNL     1     -19.642 -41.673  26.797  0.00  0.00    +0.000 A 
ATOM      8  C   UNL     1     -18.758 -42.060  27.729  0.00  0.00    +0.000 A 
ATOM      9  C   UNL     1     -17.543 -42.530  27.405  0.00  0.00    +0.000 A 
ATOM     17  C   UNL     1     -20.238 -41.344  24.423  0.00  0.00    +0.000 C 
BRANCH   7  22
ATOM     22  O   UNL     1     -20.865 -41.202  27.161  0.00  0.00    +0.000 OA
ATOM     23  H   UNL     1     -21.161 -41.666  27.961  0.00  0.00    +0.000 HD
ENDBRANCH   7  22
ENDBRANCH   2   4
ENDBRANCH   1   2
TORSDOF 6
ENDMDL
MODEL 7
REMARK VINA RESULT:      -9.2      1.996      8.257
REMARK  Name = Fragment
REMARK  9 active torsions:
REMARK  status: ('A' for Active; 'I' for Inactive)
REMARK    1  A    between atoms: C_1  and  C_2
REMARK    2  A    between atoms: C_2  and  C_4
REMARK    3  A    between atoms: C_6  and  C_17
REMARK    4  A    between atoms: C_7  and  O_22
REMARK    5  A    between atoms: C_10  and  C_11
REMARK    6  A    between atoms: C_13  and  O_20
REMARK    7  A    between atoms: C_14  and  O_18
REMARK    8  A    between atoms: O_18  and  C_19
REMARK    9  A    between atoms: O_20  and  C_21
REMARK                            x       y       z     vdW  Elec       q    Type
REMARK                         _______ _______ _______ _____ _____    ______ ____
ROOT
ATOM      1  C   UNL     1     -15.933 -43.149  26.075  0.00  0.00    +0.000 C 
ATOM     10  C   UNL     1     -16.955 -42.755  25.287  0.00  0.00    +0.000 C 
ENDROOT
BRANCH  10  11
ATOM     11  C   UNL     1     -18.156 -42.265  25.670  0.00  0.00    +0.000 A 
ATOM     12  C   UNL     1     -19.046 -41.874  24.739  0.00  0.00    +0.000 A 
ATOM     13  C   UNL     1     -20.274 -41.370  24.987  0.00  0.00    +0.000 A 
ATOM     14  C   UNL     1     -20.662 -41.240  26.281  0.00  0.00    +0.000 A 
ATOM     15  C   UNL     1     -19.777 -41.629  27.223  0.00  0.00    +0.000 A 
ATOM     16  C   UNL     1     -18.564 -42.126  26.942  0.00  0.00    +0.000 A 
BRANCH  14  18
ATOM     18  O   UNL     1     -21.899 -40.734  26.597  0.00  0.00    +0.000 OA
ATOM     19  C   UNL     1     -22.994 -41.600  26.782  0.00  0.00    +0.000 C 
ENDBRANCH  14  18
BRANCH  13  20
ATOM     20  O   UNL     1     -21.008 -41.040  23.865  0.00  0.00    +0.000 OA
ATOM     21  C   UNL     1     -20.497 -40.195  22.863  0.00  0.00    +0.000 C 
ENDBRANCH  13  20
ENDBRANCH  10  11
BRANCH   1   2
ATOM      2  C   UNL     1     -14.740 -43.637  25.613  0.00  0.00    +0.000 C 
ATOM      3  O   UNL     1     -14.589 -43.755  24.410  0.00  0.00    +0.000 OA
BRANCH   2   4
ATOM      4  C   UNL     1     -13.729 -43.989  26.476  0.00  0.00    +0.000 A 
ATOM      5  C   UNL     1     -12.808 -43.072  26.842  0.00  0.00    +0.000 A 
ATOM      6  C   UNL     1     -11.788 -43.334  27.680  0.00  0.00    +0.000 A 
ATOM      7  C   UNL     1     -11.651 -44.568  28.198  0.00  0.00    +0.000 A 
ATOM      8  C   UNL     1     -12.556 -45.495  27.847  0.00  0.00    +0.000 A 
ATOM      9  C   UNL     1     -13.568 -45.217  27.009  0.00  0.00    +0.000 A 
ATOM     17  C   UNL     1     -10.789 -42.259  28.051  0.00  0.00    +0.000 C 
BRANCH   7  22
ATOM     22  O   UNL     1     -10.638 -44.884  29.050  0.00  0.00    +0.000 OA
ATOM     23  H   UNL     1     -10.565 -45.850  29.115  0.00  0.00    +0.000 HD
ENDBRANCH   7  22
ENDBRANCH   2   4
ENDBRANCH   1   2
TORSDOF 6
ENDMDL
MODEL 8
REMARK VINA RESULT:      -8.9      1.998      7.817
REMARK  Name = Fragment
REMARK  9 active torsions:
REMARK  status: ('A' for Active; 'I' for Inactive)
REMARK    1  A    between atoms: C_1  and  C_2
REMARK    2  A    between atoms: C_2  and  C_4
REMARK    3  A    between atoms: C_6  and  C_17
REMARK    4  A    between atoms: C_7  and  O_22
REMARK    5  A    between atoms: C_10  and  C_11
REMARK    6  A    between atoms: C_13  and  O_20
REMARK    7  A    between atoms: C_14  and  O_18
REMARK    8  A    between atoms: O_18  and  C_19
REMARK    9  A    between atoms: O_20  and  C_21
REMARK                            x       y       z     vdW  Elec       q    Type
REMARK                         _______ _______ _______ _____ _____    ______ ____
ROOT
ATOM      1  C   UNL     1     -15.884 -42.952  25.751  0.00  0.00    +0.000 C 
ATOM     10  C   UNL     1     -16.876 -42.729  24.863  0.00  0.00    +0.000 C 
ENDROOT
BRANCH  10  11
ATOM     11  C   UNL     1     -18.162 -42.402  25.124  0.00  0.00    +0.000 A 
ATOM     12  C   UNL     1     -18.729 -42.793  26.280  0.00  0.00    +0.000 A 
ATOM     13  C   UNL     1     -19.999 -42.534  26.661  0.00  0.00    +0.000 A 
ATOM     14  C   UNL     1     -20.785 -41.820  25.817  0.00  0.00    +0.000 A 
ATOM     15  C   UNL     1     -20.227 -41.423  24.655  0.00  0.00    +0.000 A 
ATOM     16  C   UNL     1     -18.962 -41.697  24.307  0.00  0.00    +0.000 A 
BRANCH  14  18
ATOM     18  O   UNL     1     -22.086 -41.524  26.148  0.00  0.00    +0.000 OA
ATOM     19  C   UNL     1     -22.368 -40.487  27.057  0.00  0.00    +0.000 C 
ENDBRANCH  14  18
BRANCH  13  20
ATOM     20  O   UNL     1     -20.354 -43.041  27.896  0.00  0.00    +0.000 OA
ATOM     21  C   UNL     1     -20.860 -44.344  28.048  0.00  0.00    +0.000 C 
ENDBRANCH  13  20
ENDBRANCH  10  11
BRANCH   1   2
ATOM      2  C   UNL     1     -14.599 -43.280  25.412  0.00  0.00    +0.000 C 
ATOM      3  O   UNL     1     -14.251 -43.141  24.253  0.00  0.00    +0.000 OA
BRANCH   2   4
ATOM      4  C   UNL     1     -13.711 -43.758  26.348  0.00  0.00    +0.000 A 
ATOM      5  C   UNL     1     -12.731 -42.955  26.815  0.00  0.00    +0.000 A 
ATOM      6  C   UNL     1     -11.824 -43.343  27.730  0.00  0.00    +0.000 A 
ATOM      7  C   UNL     1     -11.868 -44.594  28.224  0.00  0.00    +0.000 A 
ATOM      8  C   UNL     1     -12.835 -45.407  27.773  0.00  0.00    +0.000 A 
ATOM      9  C   UNL     1     -13.733 -45.005  26.860  0.00  0.00    +0.000 A 
ATOM     17  C   UNL     1     -10.749 -42.392  28.213  0.00  0.00    +0.000 C 
BRANCH   7  22
ATOM     22  O   UNL     1     -10.974 -45.035  29.151  0.00  0.00    +0.000 OA
ATOM     23  H   UNL     1     -10.851 -44.350  29.827  0.00  0.00    +0.000 HD
ENDBRANCH   7  22
ENDBRANCH   2   4
ENDBRANCH   1   2
TORSDOF 6
ENDMDL
MODEL 9
REMARK VINA RESULT:      -8.7      1.790      7.569
REMARK  Name = Fragment
REMARK  9 active torsions:
REMARK  status: ('A' for Active; 'I' for Inactive)
REMARK    1  A    between atoms: C_1  and  C_2
REMARK    2  A    between atoms: C_2  and  C_4
REMARK    3  A    between atoms: C_6  and  C_17
REMARK    4  A    between atoms: C_7  and  O_22
REMARK    5  A    between atoms: C_10  and  C_11
REMARK    6  A    between atoms: C_13  and  O_20
REMARK    7  A    between atoms: C_14  and  O_18
REMARK    8  A    between atoms: O_18  and  C_19
REMARK    9  A    between atoms: O_20  and  C_21
REMARK                            x       y       z     vdW  Elec       q    Type
REMARK                         _______ _______ _______ _____ _____    ______ ____
ROOT
ATOM      1  C   UNL     1     -14.301 -44.564  27.042  0.00  0.00    +0.000 C 
ATOM     10  C   UNL     1     -14.369 -44.189  25.747  0.00  0.00    +0.000 C 
ENDROOT
BRANCH  10  11
ATOM     11  C   UNL     1     -15.388 -43.558  25.120  0.00  0.00    +0.000 A 
ATOM     12  C   UNL     1     -16.413 -43.066  25.840  0.00  0.00    +0.000 A 
ATOM     13  C   UNL     1     -17.487 -42.418  25.339  0.00  0.00    +0.000 A 
ATOM     14  C   UNL     1     -17.555 -42.238  23.996  0.00  0.00    +0.000 A 
ATOM     15  C   UNL     1     -16.532 -42.728  23.264  0.00  0.00    +0.000 A 
ATOM     16  C   UNL     1     -15.480 -43.367  23.794  0.00  0.00    +0.000 A 
BRANCH  14  18
ATOM     18  O   UNL     1     -18.622 -41.587  23.427  0.00  0.00    +0.000 OA
ATOM     19  C   UNL     1     -18.451 -40.847  22.241  0.00  0.00    +0.000 C 
ENDBRANCH  14  18
BRANCH  13  20
ATOM     20  O   UNL     1     -18.411 -42.005  26.278  0.00  0.00    +0.000 OA
ATOM     21  C   UNL     1     -18.308 -42.366  27.634  0.00  0.00    +0.000 C 
ENDBRANCH  13  20
ENDBRANCH  10  11
BRANCH   1   2
ATOM      2  C   UNL     1     -13.231 -45.202  27.610  0.00  0.00    +0.000 C 
ATOM      3  O   UNL     1     -12.762 -46.170  27.038  0.00  0.00    +0.000 OA
BRANCH   2   4
ATOM      4  C   UNL     1     -12.689 -44.771  28.798  0.00  0.00    +0.000 A 
ATOM      5  C   UNL     1     -13.400 -44.883  29.941  0.00  0.00    +0.000 A 
ATOM      6  C   UNL     1     -12.943 -44.487  31.143  0.00  0.00    +0.000 A 
ATOM      7  C   UNL     1     -11.716 -43.946  31.245  0.00  0.00    +0.000 A 
ATOM      8  C   UNL     1     -10.993 -43.826  30.121  0.00  0.00    +0.000 A 
ATOM      9  C   UNL     1     -11.463 -44.226  28.929  0.00  0.00    +0.000 A 
ATOM     17  C   UNL     1     -13.792 -44.641  32.388  0.00  0.00    +0.000 C 
BRANCH   7  22
ATOM     22  O   UNL     1     -11.208 -43.530  32.438  0.00  0.00    +0.000 OA
ATOM     23  H   UNL     1     -11.582 -42.661  32.657  0.00  0.00    +0.000 HD
ENDBRANCH   7  22
ENDBRANCH   2   4
ENDBRANCH   1   2
TORSDOF 6
ENDMDL
MODEL 10
REMARK VINA RESULT:      -8.4      2.209      8.751
REMARK  Name = Fragment
REMARK  9 active torsions:
REMARK  status: ('A' for Active; 'I' for Inactive)
REMARK    1  A    between atoms: C_1  and  C_2
REMARK    2  A    between atoms: C_2  and  C_4
REMARK    3  A    between atoms: C_6  and  C_17
REMARK    4  A    between atoms: C_7  and  O_22
REMARK    5  A    between atoms: C_10  and  C_11
REMARK    6  A    between atoms: C_13  and  O_20
REMARK    7  A    between atoms: C_14  and  O_18
REMARK    8  A    between atoms: O_18  and  C_19
REMARK    9  A    between atoms: O_20  and  C_21
REMARK                            x       y       z     vdW  Elec       q    Type
REMARK                         _______ _______ _______ _____ _____    ______ ____
ROOT
ATOM      1  C   UNL     1     -16.416 -42.786  24.300  0.00  0.00    +0.000 C 
ATOM     10  C   UNL     1     -16.684 -42.116  23.159  0.00  0.00    +0.000 C 
ENDROOT
BRANCH  10  11
ATOM     11  C   UNL     1     -17.876 -41.627  22.747  0.00  0.00    +0.000 A 
ATOM     12  C   UNL     1     -19.016 -42.194  23.182  0.00  0.00    +0.000 A 
ATOM     13  C   UNL     1     -20.266 -41.804  22.848  0.00  0.00    +0.000 A 
ATOM     14  C   UNL     1     -20.402 -40.752  22.002  0.00  0.00    +0.000 A 
ATOM     15  C   UNL     1     -19.265 -40.177  21.559  0.00  0.00    +0.000 A 
ATOM     16  C   UNL     1     -18.039 -40.589  21.911  0.00  0.00    +0.000 A 
BRANCH  14  18
ATOM     18  O   UNL     1     -21.647 -40.309  21.625  0.00  0.00    +0.000 OA
ATOM     19  C   UNL     1     -22.248 -39.228  22.297  0.00  0.00    +0.000 C 
ENDBRANCH  14  18
BRANCH  13  20
ATOM     20  O   UNL     1     -21.282 -42.542  23.423  0.00  0.00    +0.000 OA
ATOM     21  C   UNL     1     -21.754 -42.274  24.720  0.00  0.00    +0.000 C 
ENDBRANCH  13  20
ENDBRANCH  10  11
BRANCH   1   2
ATOM      2  C   UNL     1     -15.178 -43.253  24.653  0.00  0.00    +0.000 C 
ATOM      3  O   UNL     1     -14.302 -43.270  23.807  0.00  0.00    +0.000 OA
BRANCH   2   4
ATOM      4  C   UNL     1     -14.916 -43.696  25.928  0.00  0.00    +0.000 A 
ATOM      5  C   UNL     1     -13.984 -44.652  26.130  0.00  0.00    +0.000 A 
ATOM      6  C   UNL     1     -13.669 -45.139  27.344  0.00  0.00    +0.000 A 
ATOM      7  C   UNL     1     -14.299 -44.669  28.436  0.00  0.00    +0.000 A 
ATOM      8  C   UNL     1     -15.228 -43.719  28.257  0.00  0.00    +0.000 A 
ATOM      9  C   UNL     1     -15.532 -43.242  27.039  0.00  0.00    +0.000 A 
ATOM     17  C   UNL     1     -12.612 -46.213  27.501  0.00  0.00    +0.000 C 
BRANCH   7  22
ATOM     22  O   UNL     1     -14.016 -45.129  29.685  0.00  0.00    +0.000 OA
ATOM     23  H   UNL     1     -14.498 -45.958  29.836  0.00  0.00    +0.000 HD
ENDBRANCH   7  22
ENDBRANCH   2   4
ENDBRANCH   1   2
TORSDOF 6
ENDMDL
