MODEL 1
REMARK VINA RESULT:     -10.3      0.000      0.000
REMARK  Name = Fragment
REMARK  7 active torsions:
REMARK  status: ('A' for Active; 'I' for Inactive)
REMARK    1  A    between atoms: C_1  and  C_2
REMARK    2  A    between atoms: C_2  and  C_4
REMARK    3  A    between atoms: C_7  and  O_20
REMARK    4  A    between atoms: C_10  and  C_11
REMARK    5  A    between atoms: C_12  and  C_17
REMARK    6  A    between atoms: C_14  and  O_18
REMARK    7  A    between atoms: O_18  and  C_19
REMARK                            x       y       z     vdW  Elec       q    Type
REMARK                         _______ _______ _______ _____ _____    ______ ____
ROOT
ATOM      1  C   UNL     1     -13.604 -45.173  28.131  0.00  0.00    +0.000 C 
ATOM     10  C   UNL     1     -14.517 -44.232  27.805  0.00  0.00    +0.000 C 
ENDROOT
BRANCH  10  11
ATOM     11  C   UNL     1     -14.952 -43.863  26.577  0.00  0.00    +0.000 A 
ATOM     12  C   UNL     1     -16.017 -43.038  26.431  0.00  0.00    +0.000 A 
ATOM     13  C   UNL     1     -16.425 -42.689  25.195  0.00  0.00    +0.000 A 
ATOM     14  C   UNL     1     -15.845 -43.105  24.056  0.00  0.00    +0.000 A 
ATOM     15  C   UNL     1     -14.789 -43.921  24.220  0.00  0.00    +0.000 A 
ATOM     16  C   UNL     1     -14.362 -44.285  25.440  0.00  0.00    +0.000 A 
ATOM     17  C   UNL     1     -16.795 -42.473  27.607  0.00  0.00    +0.000 C 
BRANCH  14  18
ATOM     18  O   UNL     1     -16.351 -42.680  22.850  0.00  0.00    +0.000 OA
ATOM     19  C   UNL     1     -16.296 -41.307  22.538  0.00  0.00    +0.000 C 
ENDBRANCH  14  18
ENDBRANCH  10  11
BRANCH   1   2
ATOM      2  C   UNL     1     -13.226 -45.477  29.412  0.00  0.00    +0.000 C 
ATOM      3  O   UNL     1     -14.062 -45.427  30.296  0.00  0.00    +0.000 OA
BRANCH   2   4
ATOM      4  C   UNL     1     -11.931 -45.837  29.711  0.00  0.00    +0.000 A 
ATOM      5  C   UNL     1     -11.536 -45.899  31.001  0.00  0.00    +0.000 A 
ATOM      6  C   UNL     1     -10.287 -46.243  31.355  0.00  0.00    +0.000 A 
ATOM      7  C   UNL     1      -9.357 -46.546  30.438  0.00  0.00    +0.000 A 
ATOM      8  C   UNL     1      -9.736 -46.489  29.153  0.00  0.00    +0.000 A 
ATOM      9  C   UNL     1     -10.985 -46.144  28.798  0.00  0.00    +0.000 A 
BRANCH   7  20
ATOM     20  O   UNL     1      -8.090 -46.895  30.787  0.00  0.00    +0.000 OA
ATOM     21  H   UNL     1      -7.815 -47.663  30.260  0.00  0.00    +0.000 HD
ENDBRANCH   7  20
ENDBRANCH   2   4
ENDBRANCH   1   2
TORSDOF 5
ENDMDL
MODEL 2
REMARK VINA RESULT:     -10.2      2.540      3.812
REMARK  Name = Fragment
REMARK  7 active torsions:
REMARK  status: ('A' for Active; 'I' for Inactive)
REMARK    1  A    between atoms: C_1  and  C_2
REMARK    2  A    between atoms: C_2  and  C_4
REMARK    3  A    between atoms: C_7  and  O_20
REMARK    4  A    between atoms: C_10  and  C_11
REMARK    5  A    between atoms: C_12  and  C_17
REMARK    6  A    between atoms: C_14  and  O_18
REMARK    7  A    between atoms: O_18  and  C_19
REMARK                            x       y       z     vdW  Elec       q    Type
REMARK                         _______ _______ _______ _____ _____    ______ ____
ROOT
ATOM      1  C   UNL     1     -11.490 -45.240  30.358  0.00  0.00    +0.000 C 
ATOM     10  C   UNL     1     -11.312 -45.109  29.026  0.00  0.00    +0.000 C 
ENDROOT
BRANCH  10  11
ATOM     11  C   UNL     1     -12.155 -44.580  28.107  0.00  0.00    +0.000 A 
ATOM     12  C   UNL     1     -11.955 -43.334  27.611  0.00  0.00    +0.000 A 
ATOM     13  C   UNL     1     -12.811 -42.835  26.699  0.00  0.00    +0.000 A 
ATOM     14  C   UNL     1     -13.882 -43.492  26.221  0.00  0.00    +0.000 A 
ATOM     15  C   UNL     1     -14.063 -44.726  26.722  0.00  0.00    +0.000 A 
ATOM     16  C   UNL     1     -13.227 -45.247  27.633  0.00  0.00    +0.000 A 
ATOM     17  C   UNL     1     -10.797 -42.448  28.039  0.00  0.00    +0.000 C 
BRANCH  14  18
ATOM     18  O   UNL     1     -14.685 -42.879  25.287  0.00  0.00    +0.000 OA
ATOM     19  C   UNL     1     -16.080 -42.897  25.477  0.00  0.00    +0.000 C 
ENDBRANCH  14  18
ENDBRANCH  10  11
BRANCH   1   2
ATOM      2  C   UNL     1     -10.575 -45.794  31.214  0.00  0.00    +0.000 C 
ATOM      3  O   UNL     1     -10.709 -46.960  31.538  0.00  0.00    +0.000 OA
BRANCH   2   4
ATOM      4  C   UNL     1      -9.518 -45.061  31.705  0.00  0.00    +0.000 A 
ATOM      5  C   UNL     1      -8.259 -45.532  31.570  0.00  0.00    +0.000 A 
ATOM      6  C   UNL     1      -7.188 -44.864  32.029  0.00  0.00    +0.000 A 
ATOM      7  C   UNL     1      -7.313 -43.682  32.651  0.00  0.00    +0.000 A 
ATOM      8  C   UNL     1      -8.558 -43.203  32.791  0.00  0.00    +0.000 A 
ATOM      9  C   UNL     1      -9.629 -43.871  32.333  0.00  0.00    +0.000 A 
BRANCH   7  20
ATOM     20  O   UNL     1      -6.235 -42.999  33.118  0.00  0.00    +0.000 OA
ATOM     21  H   UNL     1      -6.029 -42.272  32.508  0.00  0.00    +0.000 HD
ENDBRANCH   7  20
ENDBRANCH   2   4
ENDBRANCH   1   2
TORSDOF 5
ENDMDL
MODEL 3
REMARK VINA RESULT:      -9.9      2.127      7.787
REMARK  Name = Fragment
REMARK  7 active torsions:
REMARK  status: ('A' for Active; 'I' for Inactive)
REMARK    1  A    between atoms: C_1  and  C_2
REMARK    2  A    between atoms: C_2  and  C_4
REMARK    3  A    between atoms: C_7  and  O_20
REMARK    4  A    between atoms: C_10  and  C_11
REMARK    5  A    between atoms: C_12  and  C_17
REMARK    6  A    between atoms: C_14  and  O_18
REMARK    7  A    between atoms: O_18  and  C_19
REMARK                            x       y       z     vdW  Elec       q    Type
REMARK                         _______ _______ _______ _____ _____    ______ ____
ROOT
ATOM      1  C   UNL     1     -14.348 -44.008  25.997  0.00  0.00    +0.000 C 
ATOM     10  C   UNL     1     -13.319 -43.613  26.777  0.00  0.00    +0.000 C 
ENDROOT
BRANCH  10  11
ATOM     11  C   UNL     1     -12.462 -44.374  27.498  0.00  0.00    +0.000 A 
ATOM     12  C   UNL     1     -11.346 -43.839  28.050  0.00  0.00    +0.000 A 
ATOM     13  C   UNL     1     -10.513 -44.622  28.762  0.00  0.00    +0.000 A 
ATOM     14  C   UNL     1     -10.703 -45.935  28.979  0.00  0.00    +0.000 A 
ATOM     15  C   UNL     1     -11.816 -46.448  28.426  0.00  0.00    +0.000 A 
ATOM     16  C   UNL     1     -12.662 -45.690  27.711  0.00  0.00    +0.000 A 
ATOM     17  C   UNL     1     -10.972 -42.373  27.906  0.00  0.00    +0.000 C 
BRANCH  14  18
ATOM     18  O   UNL     1      -9.783 -46.633  29.725  0.00  0.00    +0.000 OA
ATOM     19  C   UNL     1      -9.409 -46.127  30.986  0.00  0.00    +0.000 C 
ENDBRANCH  14  18
ENDBRANCH  10  11
BRANCH   1   2
ATOM      2  C   UNL     1     -15.167 -43.157  25.301  0.00  0.00    +0.000 C 
ATOM      3  O   UNL     1     -14.781 -42.719  24.232  0.00  0.00    +0.000 OA
BRANCH   2   4
ATOM      4  C   UNL     1     -16.404 -42.797  25.784  0.00  0.00    +0.000 A 
ATOM      5  C   UNL     1     -16.597 -42.697  27.118  0.00  0.00    +0.000 A 
ATOM      6  C   UNL     1     -17.781 -42.351  27.649  0.00  0.00    +0.000 A 
ATOM      7  C   UNL     1     -18.844 -42.082  26.877  0.00  0.00    +0.000 A 
ATOM      8  C   UNL     1     -18.665 -42.177  25.551  0.00  0.00    +0.000 A 
ATOM      9  C   UNL     1     -17.482 -42.524  25.019  0.00  0.00    +0.000 A 
BRANCH   7  20
ATOM     20  O   UNL     1     -20.045 -41.730  27.407  0.00  0.00    +0.000 OA
ATOM     21  H   UNL     1     -20.421 -42.493  27.878  0.00  0.00    +0.000 HD
ENDBRANCH   7  20
ENDBRANCH   2   4
ENDBRANCH   1   2
TORSDOF 5
ENDMDL
MODEL 4
REMARK VINA RESULT:      -9.9      2.664      7.857
REMARK  Name = Fragment
REMARK  7 active torsions:
REMARK  status: ('A' for Active; 'I' for Inactive)
REMARK    1  A    between atoms: C_1  and  C_2
REMARK    2  A    between atoms: C_2  and  C_4
REMARK    3  A    between atoms: C_7  and  O_20
REMARK    4  A    between atoms: C_10  and  C_11
REMARK    5  A    between atoms: C_12  and  C_17
REMARK    6  A    between atoms: C_14  and  O_18
REMARK    7  A    between atoms: O_18  and  C_19
REMARK                            x       y       z     vdW  Elec       q    Type
REMARK                         _______ _______ _______ _____ _____    ______ ____
ROOT
ATOM      1  C   UNL     1     -13.777 -43.022  26.419  0.00  0.00    +0.000 C 
ATOM     10  C   UNL     1     -12.965 -43.875  27.081  0.00  0.00    +0.000 C 
ENDROOT
BRANCH  10  11
ATOM     11  C   UNL     1     -11.802 -43.611  27.723  0.00  0.00    +0.000 A 
ATOM     12  C   UNL     1     -11.115 -44.593  28.356  0.00  0.00    +0.000 A 
ATOM     13  C   UNL     1      -9.961 -44.299  28.986  0.00  0.00    +0.000 A 
ATOM     14  C   UNL     1      -9.414 -43.072  29.040  0.00  0.00    +0.000 A 
ATOM     15  C   UNL     1     -10.108 -42.112  28.404  0.00  0.00    +0.000 A 
ATOM     16  C   UNL     1     -11.261 -42.377  27.770  0.00  0.00    +0.000 A 
ATOM     17  C   UNL     1     -11.584 -46.037  28.399  0.00  0.00    +0.000 C 
BRANCH  14  18
ATOM     18  O   UNL     1      -8.229 -42.894  29.712  0.00  0.00    +0.000 OA
ATOM     19  C   UNL     1      -7.923 -43.753  30.786  0.00  0.00    +0.000 C 
ENDBRANCH  14  18
ENDBRANCH  10  11
BRANCH   1   2
ATOM      2  C   UNL     1     -14.942 -43.384  25.796  0.00  0.00    +0.000 C 
ATOM      3  O   UNL     1     -14.881 -44.106  24.817  0.00  0.00    +0.000 OA
BRANCH   2   4
ATOM      4  C   UNL     1     -16.165 -42.950  26.254  0.00  0.00    +0.000 A 
ATOM      5  C   UNL     1     -17.153 -42.685  25.372  0.00  0.00    +0.000 A 
ATOM      6  C   UNL     1     -18.367 -42.259  25.757  0.00  0.00    +0.000 A 
ATOM      7  C   UNL     1     -18.665 -42.073  27.052  0.00  0.00    +0.000 A 
ATOM      8  C   UNL     1     -17.693 -42.332  27.938  0.00  0.00    +0.000 A 
ATOM      9  C   UNL     1     -16.479 -42.757  27.553  0.00  0.00    +0.000 A 
BRANCH   7  20
ATOM     20  O   UNL     1     -19.891 -41.641  27.451  0.00  0.00    +0.000 OA
ATOM     21  H   UNL     1     -20.484 -42.406  27.538  0.00  0.00    +0.000 HD
ENDBRANCH   7  20
ENDBRANCH   2   4
ENDBRANCH   1   2
TORSDOF 5
ENDMDL
MODEL 5
REMARK VINA RESULT:      -9.8      2.345      2.691
REMARK  Name = Fragment
REMARK  7 active torsions:
REMARK  status: ('A' for Active; 'I' for Inactive)
REMARK    1  A    between atoms: C_1  and  C_2
REMARK    2  A    between atoms: C_2  and  C_4
REMARK    3  A    between atoms: C_7  and  O_20
REMARK    4  A    between atoms: C_10  and  C_11
REMARK    5  A    between atoms: C_12  and  C_17
REMARK    6  A    between atoms: C_14  and  O_18
REMARK    7  A    between atoms: O_18  and  C_19
REMARK                            x       y       z     vdW  Elec       q    Type
REMARK                         _______ _______ _______ _____ _____    ______ ____
ROOT
ATOM      1  C   UNL     1     -13.648 -44.408  26.900  0.00  0.00    +0.000 C 
ATOM     10  C   UNL     1     -14.727 -43.596  26.874  0.00  0.00    +0.000 C 
ENDROOT
BRANCH  10  11
ATOM     11  C   UNL     1     -15.543 -43.306  25.833  0.00  0.00    +0.000 A 
ATOM     12  C   UNL     1     -16.776 -42.781  26.036  0.00  0.00    +0.000 A 
ATOM     13  C   UNL     1     -17.565 -42.504  24.980  0.00  0.00    +0.000 A 
ATOM     14  C   UNL     1     -17.221 -42.711  23.697  0.00  0.00    +0.000 A 
ATOM     15  C   UNL     1     -15.994 -43.230  23.515  0.00  0.00    +0.000 A 
ATOM     16  C   UNL     1     -15.188 -43.517  24.549  0.00  0.00    +0.000 A 
ATOM     17  C   UNL     1     -17.332 -42.483  27.419  0.00  0.00    +0.000 C 
BRANCH  14  18
ATOM     18  O   UNL     1     -18.111 -42.387  22.702  0.00  0.00    +0.000 OA
ATOM     19  C   UNL     1     -18.876 -41.211  22.833  0.00  0.00    +0.000 C 
ENDBRANCH  14  18
ENDBRANCH  10  11
BRANCH   1   2
ATOM      2  C   UNL     1     -12.877 -44.640  28.009  0.00  0.00    +0.000 C 
ATOM      3  O   UNL     1     -13.272 -45.441  28.838  0.00  0.00    +0.000 OA
BRANCH   2   4
ATOM      4  C   UNL     1     -11.678 -43.992  28.197  0.00  0.00    +0.000 A 
ATOM      5  C   UNL     1     -11.497 -42.758  27.676  0.00  0.00    +0.000 A 
ATOM      6  C   UNL     1     -10.350 -42.076  27.825  0.00  0.00    +0.000 A 
ATOM      7  C   UNL     1      -9.314 -42.587  28.507  0.00  0.00    +0.000 A 
ATOM      8  C   UNL     1      -9.481 -43.810  29.030  0.00  0.00    +0.000 A 
ATOM      9  C   UNL     1     -10.628 -44.494  28.880  0.00  0.00    +0.000 A 
BRANCH   7  20
ATOM     20  O   UNL     1      -8.149 -41.903  28.663  0.00  0.00    +0.000 OA
ATOM     21  H   UNL     1      -7.796 -42.074  29.551  0.00  0.00    +0.000 HD
ENDBRANCH   7  20
ENDBRANCH   2   4
ENDBRANCH   1   2
TORSDOF 5
ENDMDL
MODEL 6
REMARK VINA RESULT:      -9.7      2.636      3.514
REMARK  Name = Fragment
REMARK  7 active torsions:
REMARK  status: ('A' for Active; 'I' for Inactive)
REMARK    1  A    between atoms: C_1  and  C_2
REMARK    2  A    between atoms: C_2  and  C_4
REMARK    3  A    between atoms: C_7  and  O_20
REMARK    4  A    between atoms: C_10  and  C_11
REMARK    5  A    between atoms: C_12  and  C_17
REMARK    6  A    between atoms: C_14  and  O_18
REMARK    7  A    between atoms: O_18  and  C_19
REMARK                            x       y       z     vdW  Elec       q    Type
REMARK                         _______ _______ _______ _____ _____    ______ ____
ROOT
ATOM      1  C   UNL     1     -13.970 -44.294  27.635  0.00  0.00    +0.000 C 
ATOM     10  C   UNL     1     -14.582 -43.886  26.503  0.00  0.00    +0.000 C 
ENDROOT
BRANCH  10  11
ATOM     11  C   UNL     1     -15.788 -43.286  26.361  0.00  0.00    +0.000 A 
ATOM     12  C   UNL     1     -16.312 -43.051  25.133  0.00  0.00    +0.000 A 
ATOM     13  C   UNL     1     -17.513 -42.452  25.025  0.00  0.00    +0.000 A 
ATOM     14  C   UNL     1     -18.263 -42.056  26.068  0.00  0.00    +0.000 A 
ATOM     15  C   UNL     1     -17.729 -42.299  27.278  0.00  0.00    +0.000 A 
ATOM     16  C   UNL     1     -16.533 -42.892  27.414  0.00  0.00    +0.000 A 
ATOM     17  C   UNL     1     -15.603 -43.431  23.844  0.00  0.00    +0.000 C 
BRANCH  14  18
ATOM     18  O   UNL     1     -19.477 -41.455  25.833  0.00  0.00    +0.000 OA
ATOM     19  C   UNL     1     -20.425 -41.412  26.874  0.00  0.00    +0.000 C 
ENDBRANCH  14  18
ENDBRANCH  10  11
BRANCH   1   2
ATOM      2  C   UNL     1     -12.740 -44.896  27.680  0.00  0.00    +0.000 C 
ATOM      3  O   UNL     1     -12.663 -46.087  27.433  0.00  0.00    +0.000 OA
BRANCH   2   4
ATOM      4  C   UNL     1     -11.604 -44.186  27.995  0.00  0.00    +0.000 A 
ATOM      5  C   UNL     1     -11.509 -42.886  27.639  0.00  0.00    +0.000 A 
ATOM      6  C   UNL     1     -10.427 -42.141  27.917  0.00  0.00    +0.000 A 
ATOM      7  C   UNL     1      -9.373 -42.653  28.571  0.00  0.00    +0.000 A 
ATOM      8  C   UNL     1      -9.455 -43.942  28.931  0.00  0.00    +0.000 A 
ATOM      9  C   UNL     1     -10.537 -44.688  28.652  0.00  0.00    +0.000 A 
BRANCH   7  20
ATOM     20  O   UNL     1      -8.274 -41.906  28.857  0.00  0.00    +0.000 OA
ATOM     21  H   UNL     1      -8.443 -40.982  28.607  0.00  0.00    +0.000 HD
ENDBRANCH   7  20
ENDBRANCH   2   4
ENDBRANCH   1   2
TORSDOF 5
ENDMDL
MODEL 7
REMARK VINA RESULT:      -9.4      2.888      4.468
REMARK  Name = Fragment
REMARK  7 active torsions:
REMARK  status: ('A' for Active; 'I' for Inactive)
REMARK    1  A    between atoms: C_1  and  C_2
REMARK    2  A    between atoms: C_2  and  C_4
REMARK    3  A    between atoms: C_7  and  O_20
REMARK    4  A    between atoms: C_10  and  C_11
REMARK    5  A    between atoms: C_12  and  C_17
REMARK    6  A    between atoms: C_14  and  O_18
REMARK    7  A    between atoms: O_18  and  C_19
REMARK                            x       y       z     vdW  Elec       q    Type
REMARK                         _______ _______ _______ _____ _____    ______ ____
ROOT
ATOM      1  C   UNL     1     -15.361 -43.046  26.493  0.00  0.00    +0.000 C 
ATOM     10  C   UNL     1     -16.423 -42.800  25.696  0.00  0.00    +0.000 C 
ENDROOT
BRANCH  10  11
ATOM     11  C   UNL     1     -17.670 -42.404  26.046  0.00  0.00    +0.000 A 
ATOM     12  C   UNL     1     -18.576 -42.034  25.107  0.00  0.00    +0.000 A 
ATOM     13  C   UNL     1     -19.808 -41.645  25.486  0.00  0.00    +0.000 A 
ATOM     14  C   UNL     1     -20.230 -41.590  26.762  0.00  0.00    +0.000 A 
ATOM     15  C   UNL     1     -19.320 -41.962  27.679  0.00  0.00    +0.000 A 
ATOM     16  C   UNL     1     -18.085 -42.353  27.328  0.00  0.00    +0.000 A 
ATOM     17  C   UNL     1     -18.272 -42.033  23.618  0.00  0.00    +0.000 C 
BRANCH  14  18
ATOM     18  O   UNL     1     -21.514 -41.177  27.027  0.00  0.00    +0.000 OA
ATOM     19  C   UNL     1     -22.588 -41.937  26.526  0.00  0.00    +0.000 C 
ENDBRANCH  14  18
ENDBRANCH  10  11
BRANCH   1   2
ATOM      2  C   UNL     1     -14.130 -43.448  26.045  0.00  0.00    +0.000 C 
ATOM      3  O   UNL     1     -13.791 -43.141  24.915  0.00  0.00    +0.000 OA
BRANCH   2   4
ATOM      4  C   UNL     1     -13.281 -44.181  26.841  0.00  0.00    +0.000 A 
ATOM      5  C   UNL     1     -13.411 -45.525  26.898  0.00  0.00    +0.000 A 
ATOM      6  C   UNL     1     -12.614 -46.293  27.657  0.00  0.00    +0.000 A 
ATOM      7  C   UNL     1     -11.635 -45.763  28.406  0.00  0.00    +0.000 A 
ATOM      8  C   UNL     1     -11.495 -44.430  28.359  0.00  0.00    +0.000 A 
ATOM      9  C   UNL     1     -12.293 -43.660  27.600  0.00  0.00    +0.000 A 
BRANCH   7  20
ATOM     20  O   UNL     1     -10.823 -46.534  29.177  0.00  0.00    +0.000 OA
ATOM     21  H   UNL     1     -10.888 -47.457  28.883  0.00  0.00    +0.000 HD
ENDBRANCH   7  20
ENDBRANCH   2   4
ENDBRANCH   1   2
TORSDOF 5
ENDMDL
MODEL 8
REMARK VINA RESULT:      -9.1      2.025      8.143
REMARK  Name = Fragment
REMARK  7 active torsions:
REMARK  status: ('A' for Active; 'I' for Inactive)
REMARK    1  A    between atoms: C_1  and  C_2
REMARK    2  A    between atoms: C_2  and  C_4
REMARK    3  A    between atoms: C_7  and  O_20
REMARK    4  A    between atoms: C_10  and  C_11
REMARK    5  A    between atoms: C_12  and  C_17
REMARK    6  A    between atoms: C_14  and  O_18
REMARK    7  A    between atoms: O_18  and  C_19
REMARK                            x       y       z     vdW  Elec       q    Type
REMARK                         _______ _______ _______ _____ _____    ______ ____
ROOT
ATOM      1  C   UNL     1     -14.636 -43.673  26.408  0.00  0.00    +0.000 C 
ATOM     10  C   UNL     1     -13.503 -44.378  26.618  0.00  0.00    +0.000 C 
ENDROOT
BRANCH  10  11
ATOM     11  C   UNL     1     -12.943 -44.751  27.793  0.00  0.00    +0.000 A 
ATOM     12  C   UNL     1     -11.907 -44.058  28.326  0.00  0.00    +0.000 A 
ATOM     13  C   UNL     1     -11.372 -44.454  29.496  0.00  0.00    +0.000 A 
ATOM     14  C   UNL     1     -11.794 -45.516  30.206  0.00  0.00    +0.000 A 
ATOM     15  C   UNL     1     -12.823 -46.190  29.663  0.00  0.00    +0.000 A 
ATOM     16  C   UNL     1     -13.374 -45.817  28.498  0.00  0.00    +0.000 A 
ATOM     17  C   UNL     1     -11.302 -42.833  27.661  0.00  0.00    +0.000 C 
BRANCH  14  18
ATOM     18  O   UNL     1     -11.169 -45.823  31.391  0.00  0.00    +0.000 OA
ATOM     19  C   UNL     1      -9.819 -45.456  31.560  0.00  0.00    +0.000 C 
ENDBRANCH  14  18
ENDBRANCH  10  11
BRANCH   1   2
ATOM      2  C   UNL     1     -15.126 -43.339  25.173  0.00  0.00    +0.000 C 
ATOM      3  O   UNL     1     -14.393 -43.442  24.206  0.00  0.00    +0.000 OA
BRANCH   2   4
ATOM      4  C   UNL     1     -16.419 -42.897  25.010  0.00  0.00    +0.000 A 
ATOM      5  C   UNL     1     -17.159 -42.581  26.096  0.00  0.00    +0.000 A 
ATOM      6  C   UNL     1     -18.426 -42.145  26.002  0.00  0.00    +0.000 A 
ATOM      7  C   UNL     1     -19.029 -41.997  24.813  0.00  0.00    +0.000 A 
ATOM      8  C   UNL     1     -18.306 -42.307  23.727  0.00  0.00    +0.000 A 
ATOM      9  C   UNL     1     -17.039 -42.744  23.821  0.00  0.00    +0.000 A 
BRANCH   7  20
ATOM     20  O   UNL     1     -20.311 -41.556  24.709  0.00  0.00    +0.000 OA
ATOM     21  H   UNL     1     -20.881 -42.098  25.279  0.00  0.00    +0.000 HD
ENDBRANCH   7  20
ENDBRANCH   2   4
ENDBRANCH   1   2
TORSDOF 5
ENDMDL
MODEL 9
REMARK VINA RESULT:      -9.1      2.901      5.064
REMARK  Name = Fragment
REMARK  7 active torsions:
REMARK  status: ('A' for Active; 'I' for Inactive)
REMARK    1  A    between atoms: C_1  and  C_2
REMARK    2  A    between atoms: C_2  and  C_4
REMARK    3  A    between atoms: C_7  and  O_20
REMARK    4  A    between atoms: C_10  and  C_11
REMARK    5  A    between atoms: C_12  and  C_17
REMARK    6  A    between atoms: C_14  and  O_18
REMARK    7  A    between atoms: O_18  and  C_19
REMARK                            x       y       z     vdW  Elec       q    Type
REMARK                         _______ _______ _______ _____ _____    ______ ____
ROOT
ATOM      1  C   UNL     1     -16.159 -43.328  24.659  0.00  0.00    +0.000 C 
ATOM     10  C   UNL     1     -16.703 -42.776  25.765  0.00  0.00    +0.000 C 
ENDROOT
BRANCH  10  11
ATOM     11  C   UNL     1     -17.960 -42.305  25.945  0.00  0.00    +0.000 A 
ATOM     12  C   UNL     1     -18.481 -42.159  27.189  0.00  0.00    +0.000 A 
ATOM     13  C   UNL     1     -19.734 -41.688  27.335  0.00  0.00    +0.000 A 
ATOM     14  C   UNL     1     -20.540 -41.337  26.318  0.00  0.00    +0.000 A 
ATOM     15  C   UNL     1     -20.006 -41.487  25.092  0.00  0.00    +0.000 A 
ATOM     16  C   UNL     1     -18.760 -41.955  24.918  0.00  0.00    +0.000 A 
ATOM     17  C   UNL     1     -17.714 -42.507  28.454  0.00  0.00    +0.000 C 
BRANCH  14  18
ATOM     18  O   UNL     1     -21.802 -40.867  26.591  0.00  0.00    +0.000 OA
ATOM     19  C   UNL     1     -22.856 -41.792  26.724  0.00  0.00    +0.000 C 
ENDBRANCH  14  18
ENDBRANCH  10  11
BRANCH   1   2
ATOM      2  C   UNL     1     -14.868 -43.778  24.571  0.00  0.00    +0.000 C 
ATOM      3  O   UNL     1     -14.429 -44.083  23.476  0.00  0.00    +0.000 OA
BRANCH   2   4
ATOM      4  C   UNL     1     -14.069 -43.888  25.686  0.00  0.00    +0.000 A 
ATOM      5  C   UNL     1     -14.015 -45.060  26.356  0.00  0.00    +0.000 A 
ATOM      6  C   UNL     1     -13.255 -45.229  27.450  0.00  0.00    +0.000 A 
ATOM      7  C   UNL     1     -12.501 -44.233  27.940  0.00  0.00    +0.000 A 
ATOM      8  C   UNL     1     -12.545 -43.065  27.284  0.00  0.00    +0.000 A 
ATOM      9  C   UNL     1     -13.306 -42.895  26.190  0.00  0.00    +0.000 A 
BRANCH   7  20
ATOM     20  O   UNL     1     -11.728 -44.395  29.047  0.00  0.00    +0.000 OA
ATOM     21  H   UNL     1     -11.020 -45.030  28.850  0.00  0.00    +0.000 HD
ENDBRANCH   7  20
ENDBRANCH   2   4
ENDBRANCH   1   2
TORSDOF 5
ENDMDL
MODEL 10
REMARK VINA RESULT:      -9.0      1.962      8.205
REMARK  Name = Fragment
REMARK  7 active torsions:
REMARK  status: ('A' for Active; 'I' for Inactive)
REMARK    1  A    between atoms: C_1  and  C_2
REMARK    2  A    between atoms: C_2  and  C_4
REMARK    3  A    between atoms: C_7  and  O_20
REMARK    4  A    between atoms: C_10  and  C_11
REMARK    5  A    between atoms: C_12  and  C_17
REMARK    6  A    between atoms: C_14  and  O_18
REMARK    7  A    between atoms: O_18  and  C_19
REMARK                            x       y       z     vdW  Elec       q    Type
REMARK                         _______ _______ _______ _____ _____    ______ ____
ROOT
ATOM      1  C   UNL     1     -14.421 -43.458  26.671  0.00  0.00    +0.000 C 
ATOM     10  C   UNL     1     -13.355 -44.286  26.715  0.00  0.00    +0.000 C 
ENDROOT
BRANCH  10  11
ATOM     11  C   UNL     1     -12.687 -44.750  27.798  0.00  0.00    +0.000 A 
ATOM     12  C   UNL     1     -12.296 -46.045  27.876  0.00  0.00    +0.000 A 
ATOM     13  C   UNL     1     -11.633 -46.477  28.967  0.00  0.00    +0.000 A 
ATOM     14  C   UNL     1     -11.316 -45.704  30.020  0.00  0.00    +0.000 A 
ATOM     15  C   UNL     1     -11.710 -44.422  29.924  0.00  0.00    +0.000 A 
ATOM     16  C   UNL     1     -12.372 -43.966  28.849  0.00  0.00    +0.000 A 
ATOM     17  C   UNL     1     -12.570 -47.061  26.780  0.00  0.00    +0.000 C 
BRANCH  14  18
ATOM     18  O   UNL     1     -10.635 -46.257  31.078  0.00  0.00    +0.000 OA
ATOM     19  C   UNL     1      -9.237 -46.096  31.143  0.00  0.00    +0.000 C 
ENDBRANCH  14  18
ENDBRANCH  10  11
BRANCH   1   2
ATOM      2  C   UNL     1     -15.033 -43.040  25.519  0.00  0.00    +0.000 C 
ATOM      3  O   UNL     1     -14.371 -42.963  24.500  0.00  0.00    +0.000 OA
BRANCH   2   4
ATOM      4  C   UNL     1     -16.369 -42.712  25.496  0.00  0.00    +0.000 A 
ATOM      5  C   UNL     1     -16.990 -42.520  24.310  0.00  0.00    +0.000 A 
ATOM      6  C   UNL     1     -18.290 -42.197  24.223  0.00  0.00    +0.000 A 
ATOM      7  C   UNL     1     -19.051 -42.048  25.318  0.00  0.00    +0.000 A 
ATOM      8  C   UNL     1     -18.447 -42.236  26.501  0.00  0.00    +0.000 A 
ATOM      9  C   UNL     1     -17.146 -42.558  26.589  0.00  0.00    +0.000 A 
BRANCH   7  20
ATOM     20  O   UNL     1     -20.368 -41.722  25.239  0.00  0.00    +0.000 OA
ATOM     21  H   UNL     1     -20.903 -42.497  25.479  0.00  0.00    +0.000 HD
ENDBRANCH   7  20
ENDBRANCH   2   4
ENDBRANCH   1   2
TORSDOF 5
ENDMDL
