MODEL 1
REMARK VINA RESULT:     -10.0      0.000      0.000
REMARK  Name = Fragment
REMARK  5 active torsions:
REMARK  status: ('A' for Active; 'I' for Inactive)
REMARK    1  A    between atoms: C_1  and  C_2
REMARK    2  A    between atoms: C_2  and  C_4
REMARK    3  A    between atoms: C_6  and  C_17
REMARK    4  A    between atoms: C_7  and  O_18
REMARK    5  A    between atoms: C_10  and  C_11
REMARK                            x       y       z     vdW  Elec       q    Type
REMARK                         _______ _______ _______ _____ _____    ______ ____
ROOT
ATOM      2  C   UNL     1     -13.213 -45.763  30.683  0.00  0.00    +0.000 C 
ATOM      3  O   UNL     1     -13.717 -46.777  31.133  0.00  0.00    +0.000 OA
ENDROOT
BRANCH   2   4
ATOM      4  C   UNL     1     -11.988 -45.338  31.139  0.00  0.00    +0.000 A 
ATOM      5  C   UNL     1     -10.898 -46.118  30.965  0.00  0.00    +0.000 A 
ATOM      6  C   UNL     1      -9.664 -45.777  31.381  0.00  0.00    +0.000 A 
ATOM      7  C   UNL     1      -9.473 -44.602  32.009  0.00  0.00    +0.000 A 
ATOM      8  C   UNL     1     -10.542 -43.813  32.191  0.00  0.00    +0.000 A 
ATOM      9  C   UNL     1     -11.766 -44.166  31.771  0.00  0.00    +0.000 A 
ATOM     17  C   UNL     1      -8.485 -46.698  31.154  0.00  0.00    +0.000 C 
BRANCH   7  18
ATOM     18  O   UNL     1      -8.245 -44.212  32.448  0.00  0.00    +0.000 OA
ATOM     19  H   UNL     1      -8.171 -44.405  33.397  0.00  0.00    +0.000 HD
ENDBRANCH   7  18
ENDBRANCH   2   4
BRANCH   2   1
ATOM      1  C   UNL     1     -13.895 -45.068  29.720  0.00  0.00    +0.000 C 
ATOM     10  C   UNL     1     -13.622 -45.123  28.399  0.00  0.00    +0.000 C 
BRANCH  10  11
ATOM     11  C   UNL     1     -14.246 -44.471  27.392  0.00  0.00    +0.000 A 
ATOM     12  C   UNL     1     -15.158 -43.524  27.700  0.00  0.00    +0.000 A 
ATOM     13  C   UNL     1     -15.818 -42.835  26.755  0.00  0.00    +0.000 A 
ATOM     14  C   UNL     1     -15.580 -43.077  25.459  0.00  0.00    +0.000 A 
ATOM     15  C   UNL     1     -14.679 -44.010  25.126  0.00  0.00    +0.000 A 
ATOM     16  C   UNL     1     -14.025 -44.693  26.080  0.00  0.00    +0.000 A 
ENDBRANCH  10  11
ENDBRANCH   2   1
TORSDOF 4
ENDMDL
MODEL 2
REMARK VINA RESULT:      -9.8      3.962      7.960
REMARK  Name = Fragment
REMARK  5 active torsions:
REMARK  status: ('A' for Active; 'I' for Inactive)
REMARK    1  A    between atoms: C_1  and  C_2
REMARK    2  A    between atoms: C_2  and  C_4
REMARK    3  A    between atoms: C_6  and  C_17
REMARK    4  A    between atoms: C_7  and  O_18
REMARK    5  A    between atoms: C_10  and  C_11
REMARK                            x       y       z     vdW  Elec       q    Type
REMARK                         _______ _______ _______ _____ _____    ______ ____
ROOT
ATOM      2  C   UNL     1     -15.322 -43.176  25.140  0.00  0.00    +0.000 C 
ATOM      3  O   UNL     1     -15.259 -43.264  23.927  0.00  0.00    +0.000 OA
ENDROOT
BRANCH   2   4
ATOM      4  C   UNL     1     -16.495 -42.788  25.745  0.00  0.00    +0.000 A 
ATOM      5  C   UNL     1     -17.566 -42.463  24.988  0.00  0.00    +0.000 A 
ATOM      6  C   UNL     1     -18.749 -42.074  25.499  0.00  0.00    +0.000 A 
ATOM      7  C   UNL     1     -18.904 -41.994  26.834  0.00  0.00    +0.000 A 
ATOM      8  C   UNL     1     -17.852 -42.313  27.603  0.00  0.00    +0.000 A 
ATOM      9  C   UNL     1     -16.680 -42.699  27.079  0.00  0.00    +0.000 A 
ATOM     17  C   UNL     1     -19.910 -41.725  24.594  0.00  0.00    +0.000 C 
BRANCH   7  18
ATOM     18  O   UNL     1     -20.080 -41.607  27.399  0.00  0.00    +0.000 OA
ATOM     19  H   UNL     1     -20.222 -42.112  28.216  0.00  0.00    +0.000 HD
ENDBRANCH   7  18
ENDBRANCH   2   4
BRANCH   2   1
ATOM      1  C   UNL     1     -14.205 -43.472  25.875  0.00  0.00    +0.000 C 
ATOM     10  C   UNL     1     -13.998 -44.643  26.513  0.00  0.00    +0.000 C 
BRANCH  10  11
ATOM     11  C   UNL     1     -12.928 -45.009  27.254  0.00  0.00    +0.000 A 
ATOM     12  C   UNL     1     -12.237 -44.054  27.912  0.00  0.00    +0.000 A 
ATOM     13  C   UNL     1     -11.164 -44.340  28.667  0.00  0.00    +0.000 A 
ATOM     14  C   UNL     1     -10.747 -45.608  28.787  0.00  0.00    +0.000 A 
ATOM     15  C   UNL     1     -11.416 -46.576  28.145  0.00  0.00    +0.000 A 
ATOM     16  C   UNL     1     -12.488 -46.277  27.393  0.00  0.00    +0.000 A 
ENDBRANCH  10  11
ENDBRANCH   2   1
TORSDOF 4
ENDMDL
MODEL 3
REMARK VINA RESULT:      -9.7      3.831      8.308
REMARK  Name = Fragment
REMARK  5 active torsions:
REMARK  status: ('A' for Active; 'I' for Inactive)
REMARK    1  A    between atoms: C_1  and  C_2
REMARK    2  A    between atoms: C_2  and  C_4
REMARK    3  A    between atoms: C_6  and  C_17
REMARK    4  A    between atoms: C_7  and  O_18
REMARK    5  A    between atoms: C_10  and  C_11
REMARK                            x       y       z     vdW  Elec       q    Type
REMARK                         _______ _______ _______ _____ _____    ______ ____
ROOT
ATOM      2  C   UNL     1     -15.167 -43.089  24.863  0.00  0.00    +0.000 C 
ATOM      3  O   UNL     1     -14.495 -43.107  23.847  0.00  0.00    +0.000 OA
ENDROOT
BRANCH   2   4
ATOM      4  C   UNL     1     -16.479 -42.682  24.817  0.00  0.00    +0.000 A 
ATOM      5  C   UNL     1     -17.183 -42.552  25.964  0.00  0.00    +0.000 A 
ATOM      6  C   UNL     1     -18.469 -42.159  26.007  0.00  0.00    +0.000 A 
ATOM      7  C   UNL     1     -19.118 -41.874  24.863  0.00  0.00    +0.000 A 
ATOM      8  C   UNL     1     -18.437 -41.997  23.714  0.00  0.00    +0.000 A 
ATOM      9  C   UNL     1     -17.155 -42.389  23.687  0.00  0.00    +0.000 A 
ATOM     17  C   UNL     1     -19.199 -42.034  27.327  0.00  0.00    +0.000 C 
BRANCH   7  18
ATOM     18  O   UNL     1     -20.419 -41.473  24.855  0.00  0.00    +0.000 OA
ATOM     19  H   UNL     1     -20.454 -40.508  24.750  0.00  0.00    +0.000 HD
ENDBRANCH   7  18
ENDBRANCH   2   4
BRANCH   2   1
ATOM      1  C   UNL     1     -14.583 -43.484  26.038  0.00  0.00    +0.000 C 
ATOM     10  C   UNL     1     -14.088 -44.718  26.268  0.00  0.00    +0.000 C 
BRANCH  10  11
ATOM     11  C   UNL     1     -13.500 -45.182  27.394  0.00  0.00    +0.000 A 
ATOM     12  C   UNL     1     -13.997 -44.799  28.590  0.00  0.00    +0.000 A 
ATOM     13  C   UNL     1     -13.467 -45.218  29.750  0.00  0.00    +0.000 A 
ATOM     14  C   UNL     1     -12.410 -46.042  29.747  0.00  0.00    +0.000 A 
ATOM     15  C   UNL     1     -11.898 -46.438  28.574  0.00  0.00    +0.000 A 
ATOM     16  C   UNL     1     -12.437 -46.012  27.419  0.00  0.00    +0.000 A 
ENDBRANCH  10  11
ENDBRANCH   2   1
TORSDOF 4
ENDMDL
MODEL 4
REMARK VINA RESULT:      -9.6      3.390      5.319
REMARK  Name = Fragment
REMARK  5 active torsions:
REMARK  status: ('A' for Active; 'I' for Inactive)
REMARK    1  A    between atoms: C_1  and  C_2
REMARK    2  A    between atoms: C_2  and  C_4
REMARK    3  A    between atoms: C_6  and  C_17
REMARK    4  A    between atoms: C_7  and  O_18
REMARK    5  A    between atoms: C_10  and  C_11
REMARK                            x       y       z     vdW  Elec       q    Type
REMARK                         _______ _______ _______ _____ _____    ______ ____
ROOT
ATOM      2  C   UNL     1     -14.624 -43.336  25.472  0.00  0.00    +0.000 C 
ATOM      3  O   UNL     1     -14.391 -43.398  24.278  0.00  0.00    +0.000 OA
ENDROOT
BRANCH   2   4
ATOM      4  C   UNL     1     -13.705 -43.804  26.381  0.00  0.00    +0.000 A 
ATOM      5  C   UNL     1     -12.736 -42.982  26.842  0.00  0.00    +0.000 A 
ATOM      6  C   UNL     1     -11.799 -43.360  27.731  0.00  0.00    +0.000 A 
ATOM      7  C   UNL     1     -11.801 -44.619  28.207  0.00  0.00    +0.000 A 
ATOM      8  C   UNL     1     -12.755 -45.451  27.762  0.00  0.00    +0.000 A 
ATOM      9  C   UNL     1     -13.682 -45.060  26.875  0.00  0.00    +0.000 A 
ATOM     17  C   UNL     1     -10.741 -42.389  28.206  0.00  0.00    +0.000 C 
BRANCH   7  18
ATOM     18  O   UNL     1     -10.875 -45.050  29.107  0.00  0.00    +0.000 OA
ATOM     19  H   UNL     1     -10.893 -46.020  29.143  0.00  0.00    +0.000 HD
ENDBRANCH   7  18
ENDBRANCH   2   4
BRANCH   2   1
ATOM      1  C   UNL     1     -15.814 -42.791  25.878  0.00  0.00    +0.000 C 
ATOM     10  C   UNL     1     -16.951 -42.814  25.152  0.00  0.00    +0.000 C 
BRANCH  10  11
ATOM     11  C   UNL     1     -18.159 -42.301  25.482  0.00  0.00    +0.000 A 
ATOM     12  C   UNL     1     -18.494 -42.218  26.787  0.00  0.00    +0.000 A 
ATOM     13  C   UNL     1     -19.674 -41.721  27.190  0.00  0.00    +0.000 A 
ATOM     14  C   UNL     1     -20.564 -41.286  26.288  0.00  0.00    +0.000 A 
ATOM     15  C   UNL     1     -20.256 -41.357  24.986  0.00  0.00    +0.000 A 
ATOM     16  C   UNL     1     -19.072 -41.856  24.594  0.00  0.00    +0.000 A 
ENDBRANCH  10  11
ENDBRANCH   2   1
TORSDOF 4
ENDMDL
MODEL 5
REMARK VINA RESULT:      -9.4      4.235      8.477
REMARK  Name = Fragment
REMARK  5 active torsions:
REMARK  status: ('A' for Active; 'I' for Inactive)
REMARK    1  A    between atoms: C_1  and  C_2
REMARK    2  A    between atoms: C_2  and  C_4
REMARK    3  A    between atoms: C_6  and  C_17
REMARK    4  A    between atoms: C_7  and  O_18
REMARK    5  A    between atoms: C_10  and  C_11
REMARK                            x       y       z     vdW  Elec       q    Type
REMARK                         _______ _______ _______ _____ _____    ______ ____
ROOT
ATOM      2  C   UNL     1     -16.435 -42.939  25.348  0.00  0.00    +0.000 C 
ATOM      3  O   UNL     1     -16.309 -43.072  24.144  0.00  0.00    +0.000 OA
ENDROOT
BRANCH   2   4
ATOM      4  C   UNL     1     -17.624 -42.493  25.874  0.00  0.00    +0.000 A 
ATOM      5  C   UNL     1     -18.630 -42.128  25.048  0.00  0.00    +0.000 A 
ATOM      6  C   UNL     1     -19.824 -41.681  25.480  0.00  0.00    +0.000 A 
ATOM      7  C   UNL     1     -20.060 -41.581  26.802  0.00  0.00    +0.000 A 
ATOM      8  C   UNL     1     -19.074 -41.938  27.639  0.00  0.00    +0.000 A 
ATOM      9  C   UNL     1     -17.889 -42.382  27.193  0.00  0.00    +0.000 A 
ATOM     17  C   UNL     1     -20.908 -41.289  24.501  0.00  0.00    +0.000 C 
BRANCH   7  18
ATOM     18  O   UNL     1     -21.249 -41.135  27.288  0.00  0.00    +0.000 OA
ATOM     19  H   UNL     1     -21.808 -41.897  27.512  0.00  0.00    +0.000 HD
ENDBRANCH   7  18
ENDBRANCH   2   4
BRANCH   2   1
ATOM      1  C   UNL     1     -15.369 -43.245  26.154  0.00  0.00    +0.000 C 
ATOM     10  C   UNL     1     -14.643 -44.378  26.063  0.00  0.00    +0.000 C 
BRANCH  10  11
ATOM     11  C   UNL     1     -13.583 -44.750  26.816  0.00  0.00    +0.000 A 
ATOM     12  C   UNL     1     -12.891 -43.797  27.476  0.00  0.00    +0.000 A 
ATOM     13  C   UNL     1     -11.828 -44.089  28.243  0.00  0.00    +0.000 A 
ATOM     14  C   UNL     1     -11.423 -45.360  28.373  0.00  0.00    +0.000 A 
ATOM     15  C   UNL     1     -12.094 -46.325  27.730  0.00  0.00    +0.000 A 
ATOM     16  C   UNL     1     -13.155 -46.020  26.965  0.00  0.00    +0.000 A 
ENDBRANCH  10  11
ENDBRANCH   2   1
TORSDOF 4
ENDMDL
MODEL 6
REMARK VINA RESULT:      -9.4      2.106      2.458
REMARK  Name = Fragment
REMARK  5 active torsions:
REMARK  status: ('A' for Active; 'I' for Inactive)
REMARK    1  A    between atoms: C_1  and  C_2
REMARK    2  A    between atoms: C_2  and  C_4
REMARK    3  A    between atoms: C_6  and  C_17
REMARK    4  A    between atoms: C_7  and  O_18
REMARK    5  A    between atoms: C_10  and  C_11
REMARK                            x       y       z     vdW  Elec       q    Type
REMARK                         _______ _______ _______ _____ _____    ______ ____
ROOT
ATOM      2  C   UNL     1     -12.757 -45.421  28.756  0.00  0.00    +0.000 C 
ATOM      3  O   UNL     1     -13.299 -46.234  29.484  0.00  0.00    +0.000 OA
ENDROOT
BRANCH   2   4
ATOM      4  C   UNL     1     -11.577 -44.829  29.138  0.00  0.00    +0.000 A 
ATOM      5  C   UNL     1     -10.921 -44.019  28.277  0.00  0.00    +0.000 A 
ATOM      6  C   UNL     1      -9.762 -43.402  28.573  0.00  0.00    +0.000 A 
ATOM      7  C   UNL     1      -9.200 -43.580  29.783  0.00  0.00    +0.000 A 
ATOM      8  C   UNL     1      -9.836 -44.381  30.652  0.00  0.00    +0.000 A 
ATOM      9  C   UNL     1     -10.991 -44.989  30.343  0.00  0.00    +0.000 A 
ATOM     17  C   UNL     1      -9.078 -42.508  27.562  0.00  0.00    +0.000 C 
BRANCH   7  18
ATOM     18  O   UNL     1      -8.030 -42.979  30.129  0.00  0.00    +0.000 OA
ATOM     19  H   UNL     1      -7.875 -42.221  29.541  0.00  0.00    +0.000 HD
ENDBRANCH   7  18
ENDBRANCH   2   4
BRANCH   2   1
ATOM      1  C   UNL     1     -13.351 -45.119  27.559  0.00  0.00    +0.000 C 
ATOM     10  C   UNL     1     -14.271 -44.147  27.386  0.00  0.00    +0.000 C 
BRANCH  10  11
ATOM     11  C   UNL     1     -14.900 -43.790  26.243  0.00  0.00    +0.000 A 
ATOM     12  C   UNL     1     -15.979 -42.983  26.321  0.00  0.00    +0.000 A 
ATOM     13  C   UNL     1     -16.654 -42.587  25.230  0.00  0.00    +0.000 A 
ATOM     14  C   UNL     1     -16.263 -42.992  24.014  0.00  0.00    +0.000 A 
ATOM     15  C   UNL     1     -15.194 -43.792  23.909  0.00  0.00    +0.000 A 
ATOM     16  C   UNL     1     -14.527 -44.182  25.007  0.00  0.00    +0.000 A 
ENDBRANCH  10  11
ENDBRANCH   2   1
TORSDOF 4
ENDMDL
MODEL 7
REMARK VINA RESULT:      -8.8      3.527      6.050
REMARK  Name = Fragment
REMARK  5 active torsions:
REMARK  status: ('A' for Active; 'I' for Inactive)
REMARK    1  A    between atoms: C_1  and  C_2
REMARK    2  A    between atoms: C_2  and  C_4
REMARK    3  A    between atoms: C_6  and  C_17
REMARK    4  A    between atoms: C_7  and  O_18
REMARK    5  A    between atoms: C_10  and  C_11
REMARK                            x       y       z     vdW  Elec       q    Type
REMARK                         _______ _______ _______ _____ _____    ______ ____
ROOT
ATOM      2  C   UNL     1     -15.184 -43.506  24.755  0.00  0.00    +0.000 C 
ATOM      3  O   UNL     1     -14.625 -43.884  23.740  0.00  0.00    +0.000 OA
ENDROOT
BRANCH   2   4
ATOM      4  C   UNL     1     -14.763 -43.955  25.984  0.00  0.00    +0.000 A 
ATOM      5  C   UNL     1     -13.859 -44.957  26.061  0.00  0.00    +0.000 A 
ATOM      6  C   UNL     1     -13.396 -45.455  27.222  0.00  0.00    +0.000 A 
ATOM      7  C   UNL     1     -13.837 -44.948  28.389  0.00  0.00    +0.000 A 
ATOM      8  C   UNL     1     -14.734 -43.952  28.334  0.00  0.00    +0.000 A 
ATOM      9  C   UNL     1     -15.187 -43.466  27.169  0.00  0.00    +0.000 A 
ATOM     17  C   UNL     1     -12.383 -46.579  27.237  0.00  0.00    +0.000 C 
BRANCH   7  18
ATOM     18  O   UNL     1     -13.399 -45.417  29.588  0.00  0.00    +0.000 OA
ATOM     19  H   UNL     1     -14.165 -45.636  30.144  0.00  0.00    +0.000 HD
ENDBRANCH   7  18
ENDBRANCH   2   4
BRANCH   2   1
ATOM      1  C   UNL     1     -16.230 -42.629  24.636  0.00  0.00    +0.000 C 
ATOM     10  C   UNL     1     -17.475 -42.974  24.248  0.00  0.00    +0.000 C 
BRANCH  10  11
ATOM     11  C   UNL     1     -18.555 -42.171  24.108  0.00  0.00    +0.000 A 
ATOM     12  C   UNL     1     -19.336 -41.940  25.184  0.00  0.00    +0.000 A 
ATOM     13  C   UNL     1     -20.423 -41.155  25.122  0.00  0.00    +0.000 A 
ATOM     14  C   UNL     1     -20.765 -40.572  23.965  0.00  0.00    +0.000 A 
ATOM     15  C   UNL     1     -20.006 -40.784  22.881  0.00  0.00    +0.000 A 
ATOM     16  C   UNL     1     -18.920 -41.572  22.956  0.00  0.00    +0.000 A 
ENDBRANCH  10  11
ENDBRANCH   2   1
TORSDOF 4
ENDMDL
MODEL 8
REMARK VINA RESULT:      -8.6     20.494     22.807
REMARK  Name = Fragment
REMARK  5 active torsions:
REMARK  status: ('A' for Active; 'I' for Inactive)
REMARK    1  A    between atoms: C_1  and  C_2
REMARK    2  A    between atoms: C_2  and  C_4
REMARK    3  A    between atoms: C_6  and  C_17
REMARK    4  A    between atoms: C_7  and  O_18
REMARK    5  A    between atoms: C_10  and  C_11
REMARK                            x       y       z     vdW  Elec       q    Type
REMARK                         _______ _______ _______ _____ _____    ______ ____
ROOT
ATOM      2  C   UNL     1       4.215 -56.040  18.404  0.00  0.00    +0.000 C 
ATOM      3  O   UNL     1       4.808 -57.020  18.817  0.00  0.00    +0.000 OA
ENDROOT
BRANCH   2   4
ATOM      4  C   UNL     1       3.325 -55.377  19.215  0.00  0.00    +0.000 A 
ATOM      5  C   UNL     1       3.362 -54.028  19.294  0.00  0.00    +0.000 A 
ATOM      6  C   UNL     1       2.528 -53.304  20.063  0.00  0.00    +0.000 A 
ATOM      7  C   UNL     1       1.595 -53.928  20.806  0.00  0.00    +0.000 A 
ATOM      8  C   UNL     1       1.542 -55.267  20.742  0.00  0.00    +0.000 A 
ATOM      9  C   UNL     1       2.380 -55.975  19.971  0.00  0.00    +0.000 A 
ATOM     17  C   UNL     1       2.623 -51.795  20.105  0.00  0.00    +0.000 C 
BRANCH   7  18
ATOM     18  O   UNL     1       0.729 -53.241  21.599  0.00  0.00    +0.000 OA
ATOM     19  H   UNL     1      -0.174 -53.560  21.436  0.00  0.00    +0.000 HD
ENDBRANCH   7  18
ENDBRANCH   2   4
BRANCH   2   1
ATOM      1  C   UNL     1       4.460 -55.621  17.123  0.00  0.00    +0.000 C 
ATOM     10  C   UNL     1       3.805 -56.073  16.033  0.00  0.00    +0.000 C 
BRANCH  10  11
ATOM     11  C   UNL     1       3.988 -55.710  14.743  0.00  0.00    +0.000 A 
ATOM     12  C   UNL     1       5.239 -55.429  14.319  0.00  0.00    +0.000 A 
ATOM     13  C   UNL     1       5.498 -55.062  13.054  0.00  0.00    +0.000 A 
ATOM     14  C   UNL     1       4.501 -54.966  12.165  0.00  0.00    +0.000 A 
ATOM     15  C   UNL     1       3.250 -55.241  12.559  0.00  0.00    +0.000 A 
ATOM     16  C   UNL     1       3.003 -55.607  13.828  0.00  0.00    +0.000 A 
ENDBRANCH  10  11
ENDBRANCH   2   1
TORSDOF 4
ENDMDL
MODEL 9
REMARK VINA RESULT:      -8.3      4.232      7.178
REMARK  Name = Fragment
REMARK  5 active torsions:
REMARK  status: ('A' for Active; 'I' for Inactive)
REMARK    1  A    between atoms: C_1  and  C_2
REMARK    2  A    between atoms: C_2  and  C_4
REMARK    3  A    between atoms: C_6  and  C_17
REMARK    4  A    between atoms: C_7  and  O_18
REMARK    5  A    between atoms: C_10  and  C_11
REMARK                            x       y       z     vdW  Elec       q    Type
REMARK                         _______ _______ _______ _____ _____    ______ ____
ROOT
ATOM      2  C   UNL     1     -15.965 -43.050  24.111  0.00  0.00    +0.000 C 
ATOM      3  O   UNL     1     -15.459 -43.667  23.191  0.00  0.00    +0.000 OA
ENDROOT
BRANCH   2   4
ATOM      4  C   UNL     1     -15.608 -43.327  25.410  0.00  0.00    +0.000 A 
ATOM      5  C   UNL     1     -14.654 -44.251  25.662  0.00  0.00    +0.000 A 
ATOM      6  C   UNL     1     -14.247 -44.580  26.902  0.00  0.00    +0.000 A 
ATOM      7  C   UNL     1     -14.800 -43.975  27.969  0.00  0.00    +0.000 A 
ATOM      8  C   UNL     1     -15.749 -43.054  27.740  0.00  0.00    +0.000 A 
ATOM      9  C   UNL     1     -16.145 -42.736  26.498  0.00  0.00    +0.000 A 
ATOM     17  C   UNL     1     -13.174 -45.625  27.115  0.00  0.00    +0.000 C 
BRANCH   7  18
ATOM     18  O   UNL     1     -14.423 -44.273  29.242  0.00  0.00    +0.000 OA
ATOM     19  H   UNL     1     -13.766 -44.988  29.220  0.00  0.00    +0.000 HD
ENDBRANCH   7  18
ENDBRANCH   2   4
BRANCH   2   1
ATOM      1  C   UNL     1     -16.889 -42.082  23.817  0.00  0.00    +0.000 C 
ATOM     10  C   UNL     1     -18.180 -42.326  23.509  0.00  0.00    +0.000 C 
BRANCH  10  11
ATOM     11  C   UNL     1     -19.148 -41.431  23.209  0.00  0.00    +0.000 A 
ATOM     12  C   UNL     1     -18.975 -40.623  22.140  0.00  0.00    +0.000 A 
ATOM     13  C   UNL     1     -19.891 -39.710  21.780  0.00  0.00    +0.000 A 
ATOM     14  C   UNL     1     -21.021 -39.577  22.488  0.00  0.00    +0.000 A 
ATOM     15  C   UNL     1     -21.218 -40.367  23.553  0.00  0.00    +0.000 A 
ATOM     16  C   UNL     1     -20.294 -41.277  23.903  0.00  0.00    +0.000 A 
ENDBRANCH  10  11
ENDBRANCH   2   1
TORSDOF 4
ENDMDL
MODEL 10
REMARK VINA RESULT:      -8.0      6.629     11.526
REMARK  Name = Fragment
REMARK  5 active torsions:
REMARK  status: ('A' for Active; 'I' for Inactive)
REMARK    1  A    between atoms: C_1  and  C_2
REMARK    2  A    between atoms: C_2  and  C_4
REMARK    3  A    between atoms: C_6  and  C_17
REMARK    4  A    between atoms: C_7  and  O_18
REMARK    5  A    between atoms: C_10  and  C_11
REMARK                            x       y       z     vdW  Elec       q    Type
REMARK                         _______ _______ _______ _____ _____    ______ ____
ROOT
ATOM      2  C   UNL     1     -19.813 -41.644  24.003  0.00  0.00    +0.000 C 
ATOM      3  O   UNL     1     -20.647 -42.072  24.781  0.00  0.00    +0.000 OA
ENDROOT
BRANCH   2   4
ATOM      4  C   UNL     1     -20.168 -40.724  23.046  0.00  0.00    +0.000 A 
ATOM      5  C   UNL     1     -21.370 -40.110  23.117  0.00  0.00    +0.000 A 
ATOM      6  C   UNL     1     -21.794 -39.198  22.222  0.00  0.00    +0.000 A 
ATOM      7  C   UNL     1     -21.001 -38.858  21.189  0.00  0.00    +0.000 A 
ATOM      8  C   UNL     1     -19.804 -39.456  21.100  0.00  0.00    +0.000 A 
ATOM      9  C   UNL     1     -19.394 -40.363  22.000  0.00  0.00    +0.000 A 
ATOM     17  C   UNL     1     -23.153 -38.548  22.360  0.00  0.00    +0.000 C 
BRANCH   7  18
ATOM     18  O   UNL     1     -21.385 -37.942  20.258  0.00  0.00    +0.000 OA
ATOM     19  H   UNL     1     -21.227 -38.304  19.371  0.00  0.00    +0.000 HD
ENDBRANCH   7  18
ENDBRANCH   2   4
BRANCH   2   1
ATOM      1  C   UNL     1     -18.525 -42.100  24.110  0.00  0.00    +0.000 C 
ATOM     10  C   UNL     1     -17.898 -42.351  25.278  0.00  0.00    +0.000 C 
BRANCH  10  11
ATOM     11  C   UNL     1     -16.636 -42.800  25.465  0.00  0.00    +0.000 A 
ATOM     12  C   UNL     1     -15.942 -43.248  24.397  0.00  0.00    +0.000 A 
ATOM     13  C   UNL     1     -14.686 -43.709  24.505  0.00  0.00    +0.000 A 
ATOM     14  C   UNL     1     -14.080 -43.736  25.700  0.00  0.00    +0.000 A 
ATOM     15  C   UNL     1     -14.746 -43.296  26.776  0.00  0.00    +0.000 A 
ATOM     16  C   UNL     1     -16.003 -42.837  26.656  0.00  0.00    +0.000 A 
ENDBRANCH  10  11
ENDBRANCH   2   1
TORSDOF 4
ENDMDL
