MODEL 1
REMARK VINA RESULT:     -10.3      0.000      0.000
REMARK  Name = Fragment
REMARK  7 active torsions:
REMARK  status: ('A' for Active; 'I' for Inactive)
REMARK    1  A    between atoms: C_1  and  C_2
REMARK    2  A    between atoms: C_2  and  C_4
REMARK    3  A    between atoms: C_6  and  C_17
REMARK    4  A    between atoms: C_7  and  O_20
REMARK    5  A    between atoms: C_10  and  C_11
REMARK    6  A    between atoms: C_14  and  O_18
REMARK    7  A    between atoms: O_18  and  C_19
REMARK                            x       y       z     vdW  Elec       q    Type
REMARK                         _______ _______ _______ _____ _____    ______ ____
ROOT
ATOM      2  C   UNL     1     -15.321 -43.251  24.896  0.00  0.00    +0.000 C 
ATOM      3  O   UNL     1     -14.665 -43.363  23.875  0.00  0.00    +0.000 OA
ENDROOT
BRANCH   2   4
ATOM      4  C   UNL     1     -16.607 -42.765  24.842  0.00  0.00    +0.000 A 
ATOM      5  C   UNL     1     -17.309 -42.595  25.985  0.00  0.00    +0.000 A 
ATOM      6  C   UNL     1     -18.570 -42.125  26.021  0.00  0.00    +0.000 A 
ATOM      7  C   UNL     1     -19.192 -41.799  24.873  0.00  0.00    +0.000 A 
ATOM      8  C   UNL     1     -18.512 -41.961  23.728  0.00  0.00    +0.000 A 
ATOM      9  C   UNL     1     -17.255 -42.430  23.708  0.00  0.00    +0.000 A 
ATOM     17  C   UNL     1     -19.300 -41.958  27.335  0.00  0.00    +0.000 C 
BRANCH   7  20
ATOM     20  O   UNL     1     -20.466 -41.320  24.856  0.00  0.00    +0.000 OA
ATOM     21  H   UNL     1     -20.974 -41.741  25.569  0.00  0.00    +0.000 HD
ENDBRANCH   7  20
ENDBRANCH   2   4
BRANCH   2   1
ATOM      1  C   UNL     1     -14.748 -43.619  26.083  0.00  0.00    +0.000 C 
ATOM     10  C   UNL     1     -14.075 -44.772  26.282  0.00  0.00    +0.000 C 
BRANCH  10  11
ATOM     11  C   UNL     1     -13.485 -45.203  27.420  0.00  0.00    +0.000 A 
ATOM     12  C   UNL     1     -13.981 -44.801  28.608  0.00  0.00    +0.000 A 
ATOM     13  C   UNL     1     -13.439 -45.195  29.770  0.00  0.00    +0.000 A 
ATOM     14  C   UNL     1     -12.371 -46.011  29.834  0.00  0.00    +0.000 A 
ATOM     15  C   UNL     1     -11.878 -46.409  28.646  0.00  0.00    +0.000 A 
ATOM     16  C   UNL     1     -12.416 -46.019  27.478  0.00  0.00    +0.000 A 
BRANCH  14  18
ATOM     18  O   UNL     1     -11.877 -46.365  31.068  0.00  0.00    +0.000 OA
ATOM     19  C   UNL     1     -10.488 -46.289  31.289  0.00  0.00    +0.000 C 
ENDBRANCH  14  18
ENDBRANCH  10  11
ENDBRANCH   2   1
TORSDOF 5
ENDMDL
MODEL 2
REMARK VINA RESULT:      -9.9      1.008      1.753
REMARK  Name = Fragment
REMARK  7 active torsions:
REMARK  status: ('A' for Active; 'I' for Inactive)
REMARK    1  A    between atoms: C_1  and  C_2
REMARK    2  A    between atoms: C_2  and  C_4
REMARK    3  A    between atoms: C_6  and  C_17
REMARK    4  A    between atoms: C_7  and  O_20
REMARK    5  A    between atoms: C_10  and  C_11
REMARK    6  A    between atoms: C_14  and  O_18
REMARK    7  A    between atoms: O_18  and  C_19
REMARK                            x       y       z     vdW  Elec       q    Type
REMARK                         _______ _______ _______ _____ _____    ______ ____
ROOT
ATOM      2  C   UNL     1     -14.653 -43.417  25.532  0.00  0.00    +0.000 C 
ATOM      3  O   UNL     1     -14.282 -43.461  24.372  0.00  0.00    +0.000 OA
ENDROOT
BRANCH   2   4
ATOM      4  C   UNL     1     -15.928 -42.997  25.836  0.00  0.00    +0.000 A 
ATOM      5  C   UNL     1     -16.830 -42.818  24.845  0.00  0.00    +0.000 A 
ATOM      6  C   UNL     1     -18.095 -42.410  25.056  0.00  0.00    +0.000 A 
ATOM      7  C   UNL     1     -18.514 -42.160  26.310  0.00  0.00    +0.000 A 
ATOM      8  C   UNL     1     -17.634 -42.332  27.307  0.00  0.00    +0.000 A 
ATOM      9  C   UNL     1     -16.375 -42.739  27.082  0.00  0.00    +0.000 A 
ATOM     17  C   UNL     1     -19.056 -42.228  23.902  0.00  0.00    +0.000 C 
BRANCH   7  20
ATOM     20  O   UNL     1     -19.784 -41.746  26.575  0.00  0.00    +0.000 OA
ATOM     21  H   UNL     1     -20.218 -42.397  27.150  0.00  0.00    +0.000 HD
ENDBRANCH   7  20
ENDBRANCH   2   4
BRANCH   2   1
ATOM      1  C   UNL     1     -13.774 -43.792  26.513  0.00  0.00    +0.000 C 
ATOM     10  C   UNL     1     -13.818 -44.971  27.168  0.00  0.00    +0.000 C 
BRANCH  10  11
ATOM     11  C   UNL     1     -12.990 -45.410  28.143  0.00  0.00    +0.000 A 
ATOM     12  C   UNL     1     -13.403 -45.359  29.425  0.00  0.00    +0.000 A 
ATOM     13  C   UNL     1     -12.628 -45.779  30.435  0.00  0.00    +0.000 A 
ATOM     14  C   UNL     1     -11.392 -46.278  30.244  0.00  0.00    +0.000 A 
ATOM     15  C   UNL     1     -10.984 -46.328  28.962  0.00  0.00    +0.000 A 
ATOM     16  C   UNL     1     -11.755 -45.908  27.945  0.00  0.00    +0.000 A 
BRANCH  14  18
ATOM     18  O   UNL     1     -10.663 -46.687  31.336  0.00  0.00    +0.000 OA
ATOM     19  C   UNL     1      -9.257 -46.679  31.252  0.00  0.00    +0.000 C 
ENDBRANCH  14  18
ENDBRANCH  10  11
ENDBRANCH   2   1
TORSDOF 5
ENDMDL
MODEL 3
REMARK VINA RESULT:      -9.9      2.128      8.508
REMARK  Name = Fragment
REMARK  7 active torsions:
REMARK  status: ('A' for Active; 'I' for Inactive)
REMARK    1  A    between atoms: C_1  and  C_2
REMARK    2  A    between atoms: C_2  and  C_4
REMARK    3  A    between atoms: C_6  and  C_17
REMARK    4  A    between atoms: C_7  and  O_20
REMARK    5  A    between atoms: C_10  and  C_11
REMARK    6  A    between atoms: C_14  and  O_18
REMARK    7  A    between atoms: O_18  and  C_19
REMARK                            x       y       z     vdW  Elec       q    Type
REMARK                         _______ _______ _______ _____ _____    ______ ____
ROOT
ATOM      2  C   UNL     1     -13.102 -45.717  30.485  0.00  0.00    +0.000 C 
ATOM      3  O   UNL     1     -13.623 -46.747  30.875  0.00  0.00    +0.000 OA
ENDROOT
BRANCH   2   4
ATOM      4  C   UNL     1     -11.890 -45.317  30.999  0.00  0.00    +0.000 A 
ATOM      5  C   UNL     1     -10.808 -46.116  30.867  0.00  0.00    +0.000 A 
ATOM      6  C   UNL     1      -9.588 -45.800  31.339  0.00  0.00    +0.000 A 
ATOM      7  C   UNL     1      -9.403 -44.632  31.981  0.00  0.00    +0.000 A 
ATOM      8  C   UNL     1     -10.465 -43.825  32.122  0.00  0.00    +0.000 A 
ATOM      9  C   UNL     1     -11.676 -44.153  31.646  0.00  0.00    +0.000 A 
ATOM     17  C   UNL     1      -8.417 -46.740  31.158  0.00  0.00    +0.000 C 
BRANCH   7  20
ATOM     20  O   UNL     1      -8.189 -44.267  32.477  0.00  0.00    +0.000 OA
ATOM     21  H   UNL     1      -7.595 -45.035  32.463  0.00  0.00    +0.000 HD
ENDBRANCH   7  20
ENDBRANCH   2   4
BRANCH   2   1
ATOM      1  C   UNL     1     -13.751 -44.978  29.533  0.00  0.00    +0.000 C 
ATOM     10  C   UNL     1     -13.674 -45.205  28.205  0.00  0.00    +0.000 C 
BRANCH  10  11
ATOM     11  C   UNL     1     -14.282 -44.522  27.209  0.00  0.00    +0.000 A 
ATOM     12  C   UNL     1     -15.176 -43.563  27.524  0.00  0.00    +0.000 A 
ATOM     13  C   UNL     1     -15.811 -42.851  26.581  0.00  0.00    +0.000 A 
ATOM     14  C   UNL     1     -15.606 -43.042  25.265  0.00  0.00    +0.000 A 
ATOM     15  C   UNL     1     -14.713 -44.000  24.955  0.00  0.00    +0.000 A 
ATOM     16  C   UNL     1     -14.072 -44.717  25.894  0.00  0.00    +0.000 A 
BRANCH  14  18
ATOM     18  O   UNL     1     -16.299 -42.268  24.364  0.00  0.00    +0.000 OA
ATOM     19  C   UNL     1     -15.605 -41.717  23.269  0.00  0.00    +0.000 C 
ENDBRANCH  14  18
ENDBRANCH  10  11
ENDBRANCH   2   1
TORSDOF 5
ENDMDL
MODEL 4
REMARK VINA RESULT:      -9.6      1.485      2.289
REMARK  Name = Fragment
REMARK  7 active torsions:
REMARK  status: ('A' for Active; 'I' for Inactive)
REMARK    1  A    between atoms: C_1  and  C_2
REMARK    2  A    between atoms: C_2  and  C_4
REMARK    3  A    between atoms: C_6  and  C_17
REMARK    4  A    between atoms: C_7  and  O_20
REMARK    5  A    between atoms: C_10  and  C_11
REMARK    6  A    between atoms: C_14  and  O_18
REMARK    7  A    between atoms: O_18  and  C_19
REMARK                            x       y       z     vdW  Elec       q    Type
REMARK                         _______ _______ _______ _____ _____    ______ ____
ROOT
ATOM      2  C   UNL     1     -16.545 -42.870  25.167  0.00  0.00    +0.000 C 
ATOM      3  O   UNL     1     -16.483 -43.176  23.989  0.00  0.00    +0.000 OA
ENDROOT
BRANCH   2   4
ATOM      4  C   UNL     1     -17.732 -42.430  25.706  0.00  0.00    +0.000 A 
ATOM      5  C   UNL     1     -18.706 -41.962  24.894  0.00  0.00    +0.000 A 
ATOM      6  C   UNL     1     -19.894 -41.513  25.340  0.00  0.00    +0.000 A 
ATOM      7  C   UNL     1     -20.156 -41.518  26.660  0.00  0.00    +0.000 A 
ATOM      8  C   UNL     1     -19.202 -41.979  27.482  0.00  0.00    +0.000 A 
ATOM      9  C   UNL     1     -18.022 -42.423  27.024  0.00  0.00    +0.000 A 
ATOM     17  C   UNL     1     -20.943 -41.002  24.377  0.00  0.00    +0.000 C 
BRANCH   7  20
ATOM     20  O   UNL     1     -21.342 -41.075  27.160  0.00  0.00    +0.000 OA
ATOM     21  H   UNL     1     -21.898 -41.839  27.385  0.00  0.00    +0.000 HD
ENDBRANCH   7  20
ENDBRANCH   2   4
BRANCH   2   1
ATOM      1  C   UNL     1     -15.413 -42.976  25.929  0.00  0.00    +0.000 C 
ATOM     10  C   UNL     1     -14.695 -44.110  26.079  0.00  0.00    +0.000 C 
BRANCH  10  11
ATOM     11  C   UNL     1     -13.573 -44.291  26.811  0.00  0.00    +0.000 A 
ATOM     12  C   UNL     1     -13.254 -45.534  27.223  0.00  0.00    +0.000 A 
ATOM     13  C   UNL     1     -12.154 -45.777  27.952  0.00  0.00    +0.000 A 
ATOM     14  C   UNL     1     -11.297 -44.807  28.320  0.00  0.00    +0.000 A 
ATOM     15  C   UNL     1     -11.619 -43.567  27.906  0.00  0.00    +0.000 A 
ATOM     16  C   UNL     1     -12.720 -43.316  27.176  0.00  0.00    +0.000 A 
BRANCH  14  18
ATOM     18  O   UNL     1     -10.193 -45.143  29.067  0.00  0.00    +0.000 OA
ATOM     19  C   UNL     1     -10.253 -46.285  29.889  0.00  0.00    +0.000 C 
ENDBRANCH  14  18
ENDBRANCH  10  11
ENDBRANCH   2   1
TORSDOF 5
ENDMDL
MODEL 5
REMARK VINA RESULT:      -9.5      1.866      7.815
REMARK  Name = Fragment
REMARK  7 active torsions:
REMARK  status: ('A' for Active; 'I' for Inactive)
REMARK    1  A    between atoms: C_1  and  C_2
REMARK    2  A    between atoms: C_2  and  C_4
REMARK    3  A    between atoms: C_6  and  C_17
REMARK    4  A    between atoms: C_7  and  O_20
REMARK    5  A    between atoms: C_10  and  C_11
REMARK    6  A    between atoms: C_14  and  O_18
REMARK    7  A    between atoms: O_18  and  C_19
REMARK                            x       y       z     vdW  Elec       q    Type
REMARK                         _______ _______ _______ _____ _____    ______ ____
ROOT
ATOM      2  C   UNL     1     -14.628 -43.283  25.529  0.00  0.00    +0.000 C 
ATOM      3  O   UNL     1     -14.410 -43.271  24.330  0.00  0.00    +0.000 OA
ENDROOT
BRANCH   2   4
ATOM      4  C   UNL     1     -13.694 -43.800  26.397  0.00  0.00    +0.000 A 
ATOM      5  C   UNL     1     -12.709 -43.007  26.874  0.00  0.00    +0.000 A 
ATOM      6  C   UNL     1     -11.758 -43.433  27.726  0.00  0.00    +0.000 A 
ATOM      7  C   UNL     1     -11.760 -44.712  28.142  0.00  0.00    +0.000 A 
ATOM      8  C   UNL     1     -12.730 -45.516  27.680  0.00  0.00    +0.000 A 
ATOM      9  C   UNL     1     -13.672 -45.077  26.831  0.00  0.00    +0.000 A 
ATOM     17  C   UNL     1     -10.682 -42.493  28.223  0.00  0.00    +0.000 C 
BRANCH   7  20
ATOM     20  O   UNL     1     -10.820 -45.192  29.003  0.00  0.00    +0.000 OA
ATOM     21  H   UNL     1     -11.145 -46.015  29.403  0.00  0.00    +0.000 HD
ENDBRANCH   7  20
ENDBRANCH   2   4
BRANCH   2   1
ATOM      1  C   UNL     1     -15.815 -42.774  25.981  0.00  0.00    +0.000 C 
ATOM     10  C   UNL     1     -16.962 -42.762  25.270  0.00  0.00    +0.000 C 
BRANCH  10  11
ATOM     11  C   UNL     1     -18.168 -42.280  25.647  0.00  0.00    +0.000 A 
ATOM     12  C   UNL     1     -18.471 -42.230  26.960  0.00  0.00    +0.000 A 
ATOM     13  C   UNL     1     -19.650 -41.762  27.396  0.00  0.00    +0.000 A 
ATOM     14  C   UNL     1     -20.607 -41.313  26.562  0.00  0.00    +0.000 A 
ATOM     15  C   UNL     1     -20.300 -41.364  25.253  0.00  0.00    +0.000 A 
ATOM     16  C   UNL     1     -19.121 -41.832  24.808  0.00  0.00    +0.000 A 
BRANCH  14  18
ATOM     18  O   UNL     1     -21.788 -40.849  27.093  0.00  0.00    +0.000 OA
ATOM     19  C   UNL     1     -22.715 -40.224  26.236  0.00  0.00    +0.000 C 
ENDBRANCH  14  18
ENDBRANCH  10  11
ENDBRANCH   2   1
TORSDOF 5
ENDMDL
MODEL 6
REMARK VINA RESULT:      -8.9      2.657      8.852
REMARK  Name = Fragment
REMARK  7 active torsions:
REMARK  status: ('A' for Active; 'I' for Inactive)
REMARK    1  A    between atoms: C_1  and  C_2
REMARK    2  A    between atoms: C_2  and  C_4
REMARK    3  A    between atoms: C_6  and  C_17
REMARK    4  A    between atoms: C_7  and  O_20
REMARK    5  A    between atoms: C_10  and  C_11
REMARK    6  A    between atoms: C_14  and  O_18
REMARK    7  A    between atoms: O_18  and  C_19
REMARK                            x       y       z     vdW  Elec       q    Type
REMARK                         _______ _______ _______ _____ _____    ______ ____
ROOT
ATOM      2  C   UNL     1     -11.438 -45.787  30.951  0.00  0.00    +0.000 C 
ATOM      3  O   UNL     1     -11.783 -46.707  31.672  0.00  0.00    +0.000 OA
ENDROOT
BRANCH   2   4
ATOM      4  C   UNL     1     -10.260 -45.119  31.197  0.00  0.00    +0.000 A 
ATOM      5  C   UNL     1     -10.192 -44.228  32.211  0.00  0.00    +0.000 A 
ATOM      6  C   UNL     1      -9.080 -43.534  32.518  0.00  0.00    +0.000 A 
ATOM      7  C   UNL     1      -7.960 -43.715  31.795  0.00  0.00    +0.000 A 
ATOM      8  C   UNL     1      -8.008 -44.595  30.783  0.00  0.00    +0.000 A 
ATOM      9  C   UNL     1      -9.123 -45.280  30.489  0.00  0.00    +0.000 A 
ATOM     17  C   UNL     1      -9.070 -42.551  33.667  0.00  0.00    +0.000 C 
BRANCH   7  20
ATOM     20  O   UNL     1      -6.811 -43.037  32.065  0.00  0.00    +0.000 OA
ATOM     21  H   UNL     1      -6.455 -43.341  32.916  0.00  0.00    +0.000 HD
ENDBRANCH   7  20
ENDBRANCH   2   4
BRANCH   2   1
ATOM      1  C   UNL     1     -12.247 -45.441  29.903  0.00  0.00    +0.000 C 
ATOM     10  C   UNL     1     -11.860 -44.676  28.859  0.00  0.00    +0.000 C 
BRANCH  10  11
ATOM     11  C   UNL     1     -12.598 -44.294  27.792  0.00  0.00    +0.000 A 
ATOM     12  C   UNL     1     -13.366 -45.208  27.167  0.00  0.00    +0.000 A 
ATOM     13  C   UNL     1     -14.120 -44.890  26.104  0.00  0.00    +0.000 A 
ATOM     14  C   UNL     1     -14.163 -43.647  25.589  0.00  0.00    +0.000 A 
ATOM     15  C   UNL     1     -13.394 -42.738  26.217  0.00  0.00    +0.000 A 
ATOM     16  C   UNL     1     -12.637 -43.049  27.283  0.00  0.00    +0.000 A 
BRANCH  14  18
ATOM     18  O   UNL     1     -14.963 -43.406  24.497  0.00  0.00    +0.000 OA
ATOM     19  C   UNL     1     -15.068 -42.087  24.013  0.00  0.00    +0.000 C 
ENDBRANCH  14  18
ENDBRANCH  10  11
ENDBRANCH   2   1
TORSDOF 5
ENDMDL
MODEL 7
REMARK VINA RESULT:      -8.9      1.760      7.945
REMARK  Name = Fragment
REMARK  7 active torsions:
REMARK  status: ('A' for Active; 'I' for Inactive)
REMARK    1  A    between atoms: C_1  and  C_2
REMARK    2  A    between atoms: C_2  and  C_4
REMARK    3  A    between atoms: C_6  and  C_17
REMARK    4  A    between atoms: C_7  and  O_20
REMARK    5  A    between atoms: C_10  and  C_11
REMARK    6  A    between atoms: C_14  and  O_18
REMARK    7  A    between atoms: O_18  and  C_19
REMARK                            x       y       z     vdW  Elec       q    Type
REMARK                         _______ _______ _______ _____ _____    ______ ____
ROOT
ATOM      2  C   UNL     1     -15.011 -43.485  25.346  0.00  0.00    +0.000 C 
ATOM      3  O   UNL     1     -14.908 -43.777  24.167  0.00  0.00    +0.000 OA
ENDROOT
BRANCH   2   4
ATOM      4  C   UNL     1     -13.949 -43.673  26.201  0.00  0.00    +0.000 A 
ATOM      5  C   UNL     1     -13.754 -44.882  26.774  0.00  0.00    +0.000 A 
ATOM      6  C   UNL     1     -12.742 -45.148  27.620  0.00  0.00    +0.000 A 
ATOM      7  C   UNL     1     -11.861 -44.181  27.932  0.00  0.00    +0.000 A 
ATOM      8  C   UNL     1     -12.038 -42.974  27.373  0.00  0.00    +0.000 A 
ATOM      9  C   UNL     1     -13.051 -42.722  26.531  0.00  0.00    +0.000 A 
ATOM     17  C   UNL     1     -12.580 -46.524  28.228  0.00  0.00    +0.000 C 
BRANCH   7  20
ATOM     20  O   UNL     1     -10.821 -44.401  28.782  0.00  0.00    +0.000 OA
ATOM     21  H   UNL     1     -10.151 -43.711  28.651  0.00  0.00    +0.000 HD
ENDBRANCH   7  20
ENDBRANCH   2   4
BRANCH   2   1
ATOM      1  C   UNL     1     -16.200 -42.971  25.789  0.00  0.00    +0.000 C 
ATOM     10  C   UNL     1     -17.244 -42.661  24.991  0.00  0.00    +0.000 C 
BRANCH  10  11
ATOM     11  C   UNL     1     -18.443 -42.153  25.353  0.00  0.00    +0.000 A 
ATOM     12  C   UNL     1     -19.286 -41.717  24.395  0.00  0.00    +0.000 A 
ATOM     13  C   UNL     1     -20.488 -41.202  24.692  0.00  0.00    +0.000 A 
ATOM     14  C   UNL     1     -20.937 -41.085  25.956  0.00  0.00    +0.000 A 
ATOM     15  C   UNL     1     -20.092 -41.522  26.909  0.00  0.00    +0.000 A 
ATOM     16  C   UNL     1     -18.886 -42.038  26.619  0.00  0.00    +0.000 A 
BRANCH  14  18
ATOM     18  O   UNL     1     -22.184 -40.546  26.172  0.00  0.00    +0.000 OA
ATOM     19  C   UNL     1     -23.318 -41.306  25.828  0.00  0.00    +0.000 C 
ENDBRANCH  14  18
ENDBRANCH  10  11
ENDBRANCH   2   1
TORSDOF 5
ENDMDL
MODEL 8
REMARK VINA RESULT:      -8.5      1.341      2.564
REMARK  Name = Fragment
REMARK  7 active torsions:
REMARK  status: ('A' for Active; 'I' for Inactive)
REMARK    1  A    between atoms: C_1  and  C_2
REMARK    2  A    between atoms: C_2  and  C_4
REMARK    3  A    between atoms: C_6  and  C_17
REMARK    4  A    between atoms: C_7  and  O_20
REMARK    5  A    between atoms: C_10  and  C_11
REMARK    6  A    between atoms: C_14  and  O_18
REMARK    7  A    between atoms: O_18  and  C_19
REMARK                            x       y       z     vdW  Elec       q    Type
REMARK                         _______ _______ _______ _____ _____    ______ ____
ROOT
ATOM      2  C   UNL     1     -16.374 -42.534  24.031  0.00  0.00    +0.000 C 
ATOM      3  O   UNL     1     -15.595 -42.493  23.095  0.00  0.00    +0.000 OA
ENDROOT
BRANCH   2   4
ATOM      4  C   UNL     1     -17.642 -42.016  23.899  0.00  0.00    +0.000 A 
ATOM      5  C   UNL     1     -18.015 -41.442  22.733  0.00  0.00    +0.000 A 
ATOM      6  C   UNL     1     -19.234 -40.912  22.522  0.00  0.00    +0.000 A 
ATOM      7  C   UNL     1     -20.153 -40.940  23.504  0.00  0.00    +0.000 A 
ATOM      8  C   UNL     1     -19.802 -41.506  24.669  0.00  0.00    +0.000 A 
ATOM      9  C   UNL     1     -18.583 -42.030  24.865  0.00  0.00    +0.000 A 
ATOM     17  C   UNL     1     -19.589 -40.283  21.192  0.00  0.00    +0.000 C 
BRANCH   7  20
ATOM     20  O   UNL     1     -21.399 -40.418  23.340  0.00  0.00    +0.000 OA
ATOM     21  H   UNL     1     -21.379 -39.472  23.555  0.00  0.00    +0.000 HD
ENDBRANCH   7  20
ENDBRANCH   2   4
BRANCH   2   1
ATOM      1  C   UNL     1     -15.956 -43.102  25.204  0.00  0.00    +0.000 C 
ATOM     10  C   UNL     1     -14.807 -43.795  25.351  0.00  0.00    +0.000 C 
BRANCH  10  11
ATOM     11  C   UNL     1     -14.330 -44.383  26.471  0.00  0.00    +0.000 A 
ATOM     12  C   UNL     1     -13.417 -45.369  26.355  0.00  0.00    +0.000 A 
ATOM     13  C   UNL     1     -12.907 -45.989  27.429  0.00  0.00    +0.000 A 
ATOM     14  C   UNL     1     -13.265 -45.676  28.688  0.00  0.00    +0.000 A 
ATOM     15  C   UNL     1     -14.176 -44.692  28.799  0.00  0.00    +0.000 A 
ATOM     16  C   UNL     1     -14.692 -44.065  27.728  0.00  0.00    +0.000 A 
BRANCH  14  18
ATOM     18  O   UNL     1     -12.692 -46.363  29.733  0.00  0.00    +0.000 OA
ATOM     19  C   UNL     1     -11.316 -46.191  29.982  0.00  0.00    +0.000 C 
ENDBRANCH  14  18
ENDBRANCH  10  11
ENDBRANCH   2   1
TORSDOF 5
ENDMDL
MODEL 9
REMARK VINA RESULT:      -8.3     21.758     24.910
REMARK  Name = Fragment
REMARK  7 active torsions:
REMARK  status: ('A' for Active; 'I' for Inactive)
REMARK    1  A    between atoms: C_1  and  C_2
REMARK    2  A    between atoms: C_2  and  C_4
REMARK    3  A    between atoms: C_6  and  C_17
REMARK    4  A    between atoms: C_7  and  O_20
REMARK    5  A    between atoms: C_10  and  C_11
REMARK    6  A    between atoms: C_14  and  O_18
REMARK    7  A    between atoms: O_18  and  C_19
REMARK                            x       y       z     vdW  Elec       q    Type
REMARK                         _______ _______ _______ _____ _____    ______ ____
ROOT
ATOM      2  C   UNL     1       4.133 -56.216  18.895  0.00  0.00    +0.000 C 
ATOM      3  O   UNL     1       4.526 -57.275  19.351  0.00  0.00    +0.000 OA
ENDROOT
BRANCH   2   4
ATOM      4  C   UNL     1       3.211 -55.464  19.586  0.00  0.00    +0.000 A 
ATOM      5  C   UNL     1       3.277 -54.115  19.544  0.00  0.00    +0.000 A 
ATOM      6  C   UNL     1       2.416 -53.307  20.190  0.00  0.00    +0.000 A 
ATOM      7  C   UNL     1       1.425 -53.842  20.926  0.00  0.00    +0.000 A 
ATOM      8  C   UNL     1       1.342 -55.180  20.981  0.00  0.00    +0.000 A 
ATOM      9  C   UNL     1       2.208 -55.973  20.331  0.00  0.00    +0.000 A 
ATOM     17  C   UNL     1       2.545 -51.803  20.102  0.00  0.00    +0.000 C 
BRANCH   7  20
ATOM     20  O   UNL     1       0.529 -53.068  21.598  0.00  0.00    +0.000 OA
ATOM     21  H   UNL     1       0.468 -52.202  21.164  0.00  0.00    +0.000 HD
ENDBRANCH   7  20
ENDBRANCH   2   4
BRANCH   2   1
ATOM      1  C   UNL     1       4.629 -55.801  17.689  0.00  0.00    +0.000 C 
ATOM     10  C   UNL     1       4.070 -56.084  16.493  0.00  0.00    +0.000 C 
BRANCH  10  11
ATOM     11  C   UNL     1       4.499 -55.711  15.267  0.00  0.00    +0.000 A 
ATOM     12  C   UNL     1       5.774 -55.298  15.117  0.00  0.00    +0.000 A 
ATOM     13  C   UNL     1       6.258 -54.916  13.926  0.00  0.00    +0.000 A 
ATOM     14  C   UNL     1       5.514 -54.917  12.804  0.00  0.00    +0.000 A 
ATOM     15  C   UNL     1       4.242 -55.330  12.958  0.00  0.00    +0.000 A 
ATOM     16  C   UNL     1       3.750 -55.714  14.149  0.00  0.00    +0.000 A 
BRANCH  14  18
ATOM     18  O   UNL     1       6.089 -54.510  11.624  0.00  0.00    +0.000 OA
ATOM     19  C   UNL     1       7.375 -54.986  11.298  0.00  0.00    +0.000 C 
ENDBRANCH  14  18
ENDBRANCH  10  11
ENDBRANCH   2   1
TORSDOF 5
ENDMDL
MODEL 10
REMARK VINA RESULT:      -8.2      3.694      9.485
REMARK  Name = Fragment
REMARK  7 active torsions:
REMARK  status: ('A' for Active; 'I' for Inactive)
REMARK    1  A    between atoms: C_1  and  C_2
REMARK    2  A    between atoms: C_2  and  C_4
REMARK    3  A    between atoms: C_6  and  C_17
REMARK    4  A    between atoms: C_7  and  O_20
REMARK    5  A    between atoms: C_10  and  C_11
REMARK    6  A    between atoms: C_14  and  O_18
REMARK    7  A    between atoms: O_18  and  C_19
REMARK                            x       y       z     vdW  Elec       q    Type
REMARK                         _______ _______ _______ _____ _____    ______ ____
ROOT
ATOM      2  C   UNL     1     -17.308 -42.575  23.442  0.00  0.00    +0.000 C 
ATOM      3  O   UNL     1     -16.541 -43.137  22.681  0.00  0.00    +0.000 OA
ENDROOT
BRANCH   2   4
ATOM      4  C   UNL     1     -17.073 -42.589  24.798  0.00  0.00    +0.000 A 
ATOM      5  C   UNL     1     -18.104 -42.442  25.660  0.00  0.00    +0.000 A 
ATOM      6  C   UNL     1     -17.960 -42.444  26.998  0.00  0.00    +0.000 A 
ATOM      7  C   UNL     1     -16.737 -42.599  27.537  0.00  0.00    +0.000 A 
ATOM      8  C   UNL     1     -15.701 -42.746  26.698  0.00  0.00    +0.000 A 
ATOM      9  C   UNL     1     -15.859 -42.742  25.365  0.00  0.00    +0.000 A 
ATOM     17  C   UNL     1     -19.156 -42.275  27.909  0.00  0.00    +0.000 C 
BRANCH   7  20
ATOM     20  O   UNL     1     -16.540 -42.608  28.884  0.00  0.00    +0.000 OA
ATOM     21  H   UNL     1     -17.341 -42.938  29.321  0.00  0.00    +0.000 HD
ENDBRANCH   7  20
ENDBRANCH   2   4
BRANCH   2   1
ATOM      1  C   UNL     1     -18.399 -41.936  22.915  0.00  0.00    +0.000 C 
ATOM     10  C   UNL     1     -18.341 -40.800  22.188  0.00  0.00    +0.000 C 
BRANCH  10  11
ATOM     11  C   UNL     1     -19.368 -40.114  21.638  0.00  0.00    +0.000 A 
ATOM     12  C   UNL     1     -19.401 -39.946  20.301  0.00  0.00    +0.000 A 
ATOM     13  C   UNL     1     -20.394 -39.276  19.697  0.00  0.00    +0.000 A 
ATOM     14  C   UNL     1     -21.419 -38.727  20.375  0.00  0.00    +0.000 A 
ATOM     15  C   UNL     1     -21.382 -38.898  21.710  0.00  0.00    +0.000 A 
ATOM     16  C   UNL     1     -20.391 -39.568  22.322  0.00  0.00    +0.000 A 
BRANCH  14  18
ATOM     18  O   UNL     1     -22.395 -38.056  19.677  0.00  0.00    +0.000 OA
ATOM     19  C   UNL     1     -22.149 -37.706  18.335  0.00  0.00    +0.000 C 
ENDBRANCH  14  18
ENDBRANCH  10  11
ENDBRANCH   2   1
TORSDOF 5
ENDMDL
