MODEL 1
REMARK VINA RESULT:      -8.9      0.000      0.000
REMARK  Name = Fragment
REMARK  8 active torsions:
REMARK  status: ('A' for Active; 'I' for Inactive)
REMARK    1  A    between atoms: C_3  and  C_4
REMARK    2  A    between atoms: C_4  and  C_5
REMARK    3  A    between atoms: N_8  and  C_9
REMARK    4  A    between atoms: C_9  and  C_10
REMARK    5  A    between atoms: C_22  and  O_23
REMARK    6  A    between atoms: O_23  and  C_24
REMARK    7  A    between atoms: C_25  and  O_26
REMARK    8  A    between atoms: O_26  and  C_27
REMARK                            x       y       z     vdW  Elec       q    Type
REMARK                         _______ _______ _______ _____ _____    ______ ____
ROOT
ATOM      1  O   UNL     1     -19.533 -42.057  23.712  0.00  0.00    +0.000 OA
ATOM      2  C   UNL     1     -19.160 -42.088  24.863  0.00  0.00    +0.000 C 
ATOM      3  C   UNL     1     -20.043 -41.756  26.073  0.00  0.00    +0.000 C 
ATOM     18  C   UNL     1     -19.128 -41.965  27.303  0.00  0.00    +0.000 C 
ATOM     19  C   UNL     1     -17.841 -42.350  26.638  0.00  0.00    +0.000 A 
ATOM     20  C   UNL     1     -17.921 -42.403  25.312  0.00  0.00    +0.000 A 
ATOM     21  C   UNL     1     -16.856 -42.738  24.576  0.00  0.00    +0.000 A 
ATOM     22  C   UNL     1     -15.666 -43.024  25.152  0.00  0.00    +0.000 A 
ATOM     25  C   UNL     1     -15.582 -42.995  26.512  0.00  0.00    +0.000 A 
ATOM     28  C   UNL     1     -16.675 -42.640  27.223  0.00  0.00    +0.000 A 
ENDROOT
BRANCH  22  23
ATOM     23  O   UNL     1     -14.565 -43.385  24.411  0.00  0.00    +0.000 OA
ATOM     24  C   UNL     1     -14.477 -44.679  23.861  0.00  0.00    +0.000 C 
ENDBRANCH  22  23
BRANCH  25  26
ATOM     26  O   UNL     1     -14.449 -43.243  27.260  0.00  0.00    +0.000 OA
ATOM     27  C   UNL     1     -14.101 -44.556  27.630  0.00  0.00    +0.000 C 
ENDBRANCH  25  26
BRANCH   3   4
ATOM      4  C   UNL     1     -21.341 -42.581  26.096  0.00  0.00    +0.000 C 
BRANCH   4   5
ATOM      5  C   UNL     1     -22.598 -41.815  26.556  0.00  0.00    +0.000 C 
ATOM      6  C   UNL     1     -23.358 -42.619  27.624  0.00  0.00    +0.000 C 
ATOM      7  C   UNL     1     -24.603 -41.865  28.116  0.00  0.00    +0.000 C 
ATOM      8  N   UNL     1     -24.263 -40.555  28.653  0.00  0.00    +0.000 NA
ATOM     16  C   UNL     1     -23.585 -39.747  27.647  0.00  0.00    +0.000 C 
ATOM     17  C   UNL     1     -22.304 -40.423  27.131  0.00  0.00    +0.000 C 
BRANCH   8   9
ATOM      9  C   UNL     1     -25.452 -39.883  29.168  0.00  0.00    +0.000 C 
BRANCH   9  10
ATOM     10  C   UNL     1     -25.127 -39.084  30.416  0.00  0.00    +0.000 A 
ATOM     11  C   UNL     1     -24.854 -37.770  30.328  0.00  0.00    +0.000 A 
ATOM     12  C   UNL     1     -24.567 -37.050  31.423  0.00  0.00    +0.000 A 
ATOM     13  C   UNL     1     -24.548 -37.639  32.627  0.00  0.00    +0.000 A 
ATOM     14  C   UNL     1     -24.817 -38.950  32.729  0.00  0.00    +0.000 A 
ATOM     15  C   UNL     1     -25.103 -39.664  31.630  0.00  0.00    +0.000 A 
ENDBRANCH   9  10
ENDBRANCH   8   9
ENDBRANCH   4   5
ENDBRANCH   3   4
TORSDOF 6
ENDMDL
MODEL 2
REMARK VINA RESULT:      -7.5     27.871     31.107
REMARK  Name = Fragment
REMARK  8 active torsions:
REMARK  status: ('A' for Active; 'I' for Inactive)
REMARK    1  A    between atoms: C_3  and  C_4
REMARK    2  A    between atoms: C_4  and  C_5
REMARK    3  A    between atoms: N_8  and  C_9
REMARK    4  A    between atoms: C_9  and  C_10
REMARK    5  A    between atoms: C_22  and  O_23
REMARK    6  A    between atoms: O_23  and  C_24
REMARK    7  A    between atoms: C_25  and  O_26
REMARK    8  A    between atoms: O_26  and  C_27
REMARK                            x       y       z     vdW  Elec       q    Type
REMARK                         _______ _______ _______ _____ _____    ______ ____
ROOT
ATOM      1  O   UNL     1       6.121 -57.121  12.210  0.00  0.00    +0.000 OA
ATOM      2  C   UNL     1       5.270 -56.619  12.908  0.00  0.00    +0.000 C 
ATOM      3  C   UNL     1       3.938 -56.058  12.390  0.00  0.00    +0.000 C 
ATOM     18  C   UNL     1       3.198 -55.560  13.654  0.00  0.00    +0.000 C 
ATOM     19  C   UNL     1       4.211 -55.865  14.716  0.00  0.00    +0.000 A 
ATOM     20  C   UNL     1       5.314 -56.443  14.250  0.00  0.00    +0.000 A 
ATOM     21  C   UNL     1       6.309 -56.781  15.077  0.00  0.00    +0.000 A 
ATOM     22  C   UNL     1       6.231 -56.540  16.406  0.00  0.00    +0.000 A 
ATOM     25  C   UNL     1       5.093 -55.970  16.895  0.00  0.00    +0.000 A 
ATOM     28  C   UNL     1       4.114 -55.630  16.028  0.00  0.00    +0.000 A 
ENDROOT
BRANCH  22  23
ATOM     23  O   UNL     1       7.239 -56.896  17.272  0.00  0.00    +0.000 OA
ATOM     24  C   UNL     1       8.076 -57.988  16.972  0.00  0.00    +0.000 C 
ENDBRANCH  22  23
BRANCH  25  26
ATOM     26  O   UNL     1       4.853 -55.642  18.213  0.00  0.00    +0.000 OA
ATOM     27  C   UNL     1       3.566 -55.260  18.638  0.00  0.00    +0.000 C 
ENDBRANCH  25  26
BRANCH   3   4
ATOM      4  C   UNL     1       3.154 -57.085  11.555  0.00  0.00    +0.000 C 
BRANCH   4   5
ATOM      5  C   UNL     1       2.035 -56.496  10.672  0.00  0.00    +0.000 C 
ATOM      6  C   UNL     1       0.964 -57.560  10.382  0.00  0.00    +0.000 C 
ATOM      7  C   UNL     1      -0.176 -56.990   9.523  0.00  0.00    +0.000 C 
ATOM      8  N   UNL     1      -0.802 -55.837  10.154  0.00  0.00    +0.000 NA
ATOM     16  C   UNL     1       0.179 -54.788  10.397  0.00  0.00    +0.000 C 
ATOM     17  C   UNL     1       1.336 -55.274  11.284  0.00  0.00    +0.000 C 
BRANCH   8   9
ATOM      9  C   UNL     1      -1.919 -55.351   9.349  0.00  0.00    +0.000 C 
BRANCH   9  10
ATOM     10  C   UNL     1      -3.220 -56.006   9.772  0.00  0.00    +0.000 A 
ATOM     11  C   UNL     1      -3.877 -56.818   8.925  0.00  0.00    +0.000 A 
ATOM     12  C   UNL     1      -5.027 -57.408   9.286  0.00  0.00    +0.000 A 
ATOM     13  C   UNL     1      -5.538 -57.189  10.506  0.00  0.00    +0.000 A 
ATOM     14  C   UNL     1      -4.894 -56.380  11.360  0.00  0.00    +0.000 A 
ATOM     15  C   UNL     1      -3.743 -55.794  10.993  0.00  0.00    +0.000 A 
ENDBRANCH   9  10
ENDBRANCH   8   9
ENDBRANCH   4   5
ENDBRANCH   3   4
TORSDOF 6
ENDMDL
MODEL 3
REMARK VINA RESULT:      -7.3      8.178     11.421
REMARK  Name = Fragment
REMARK  8 active torsions:
REMARK  status: ('A' for Active; 'I' for Inactive)
REMARK    1  A    between atoms: C_3  and  C_4
REMARK    2  A    between atoms: C_4  and  C_5
REMARK    3  A    between atoms: N_8  and  C_9
REMARK    4  A    between atoms: C_9  and  C_10
REMARK    5  A    between atoms: C_22  and  O_23
REMARK    6  A    between atoms: O_23  and  C_24
REMARK    7  A    between atoms: C_25  and  O_26
REMARK    8  A    between atoms: O_26  and  C_27
REMARK                            x       y       z     vdW  Elec       q    Type
REMARK                         _______ _______ _______ _____ _____    ______ ____
ROOT
ATOM      1  O   UNL     1     -22.754 -38.048  16.689  0.00  0.00    +0.000 OA
ATOM      2  C   UNL     1     -23.192 -37.499  17.674  0.00  0.00    +0.000 C 
ATOM      3  C   UNL     1     -22.834 -37.882  19.117  0.00  0.00    +0.000 C 
ATOM     18  C   UNL     1     -23.618 -36.882  19.999  0.00  0.00    +0.000 C 
ATOM     19  C   UNL     1     -24.345 -36.089  18.956  0.00  0.00    +0.000 A 
ATOM     20  C   UNL     1     -24.071 -36.468  17.711  0.00  0.00    +0.000 A 
ATOM     21  C   UNL     1     -24.638 -35.852  16.669  0.00  0.00    +0.000 A 
ATOM     22  C   UNL     1     -25.512 -34.835  16.844  0.00  0.00    +0.000 A 
ATOM     25  C   UNL     1     -25.779 -34.424  18.116  0.00  0.00    +0.000 A 
ATOM     28  C   UNL     1     -25.198 -35.078  19.146  0.00  0.00    +0.000 A 
ENDROOT
BRANCH  22  23
ATOM     23  O   UNL     1     -26.092 -34.180  15.782  0.00  0.00    +0.000 OA
ATOM     24  C   UNL     1     -25.333 -33.283  15.005  0.00  0.00    +0.000 C 
ENDBRANCH  22  23
BRANCH  25  26
ATOM     26  O   UNL     1     -26.652 -33.418  18.476  0.00  0.00    +0.000 OA
ATOM     27  C   UNL     1     -26.789 -33.029  19.822  0.00  0.00    +0.000 C 
ENDBRANCH  25  26
BRANCH   3   4
ATOM      4  C   UNL     1     -21.315 -37.893  19.360  0.00  0.00    +0.000 C 
BRANCH   4   5
ATOM      5  C   UNL     1     -20.765 -39.178  20.013  0.00  0.00    +0.000 C 
ATOM      6  C   UNL     1     -20.101 -38.854  21.362  0.00  0.00    +0.000 C 
ATOM      7  C   UNL     1     -19.566 -40.122  22.044  0.00  0.00    +0.000 C 
ATOM      8  N   UNL     1     -20.617 -41.109  22.250  0.00  0.00    +0.000 NA
ATOM     16  C   UNL     1     -21.234 -41.476  20.982  0.00  0.00    +0.000 C 
ATOM     17  C   UNL     1     -21.828 -40.259  20.255  0.00  0.00    +0.000 C 
BRANCH   8   9
ATOM      9  C   UNL     1     -20.098 -42.278  22.953  0.00  0.00    +0.000 C 
BRANCH   9  10
ATOM     10  C   UNL     1     -19.964 -42.004  24.438  0.00  0.00    +0.000 A 
ATOM     11  C   UNL     1     -20.940 -41.358  25.100  0.00  0.00    +0.000 A 
ATOM     12  C   UNL     1     -20.837 -41.111  26.415  0.00  0.00    +0.000 A 
ATOM     13  C   UNL     1     -19.748 -41.509  27.088  0.00  0.00    +0.000 A 
ATOM     14  C   UNL     1     -18.766 -42.154  26.440  0.00  0.00    +0.000 A 
ATOM     15  C   UNL     1     -18.876 -42.398  25.125  0.00  0.00    +0.000 A 
ENDBRANCH   9  10
ENDBRANCH   8   9
ENDBRANCH   4   5
ENDBRANCH   3   4
TORSDOF 6
ENDMDL
MODEL 4
REMARK VINA RESULT:      -6.2     29.275     35.348
REMARK  Name = Fragment
REMARK  8 active torsions:
REMARK  status: ('A' for Active; 'I' for Inactive)
REMARK    1  A    between atoms: C_3  and  C_4
REMARK    2  A    between atoms: C_4  and  C_5
REMARK    3  A    between atoms: N_8  and  C_9
REMARK    4  A    between atoms: C_9  and  C_10
REMARK    5  A    between atoms: C_22  and  O_23
REMARK    6  A    between atoms: O_23  and  C_24
REMARK    7  A    between atoms: C_25  and  O_26
REMARK    8  A    between atoms: O_26  and  C_27
REMARK                            x       y       z     vdW  Elec       q    Type
REMARK                         _______ _______ _______ _____ _____    ______ ____
ROOT
ATOM      1  O   UNL     1      10.605 -57.926  14.509  0.00  0.00    +0.000 OA
ATOM      2  C   UNL     1      10.707 -58.532  15.552  0.00  0.00    +0.000 C 
ATOM      3  C   UNL     1       9.530 -58.899  16.464  0.00  0.00    +0.000 C 
ATOM     18  C   UNL     1      10.166 -59.682  17.638  0.00  0.00    +0.000 C 
ATOM     19  C   UNL     1      11.617 -59.627  17.265  0.00  0.00    +0.000 A 
ATOM     20  C   UNL     1      11.848 -58.993  16.119  0.00  0.00    +0.000 A 
ATOM     21  C   UNL     1      13.094 -58.866  15.649  0.00  0.00    +0.000 A 
ATOM     22  C   UNL     1      14.154 -59.367  16.323  0.00  0.00    +0.000 A 
ATOM     25  C   UNL     1      13.922 -60.040  17.485  0.00  0.00    +0.000 A 
ATOM     28  C   UNL     1      12.652 -60.138  17.937  0.00  0.00    +0.000 A 
ENDROOT
BRANCH  22  23
ATOM     23  O   UNL     1      15.439 -59.259  15.845  0.00  0.00    +0.000 OA
ATOM     24  C   UNL     1      15.948 -60.229  14.958  0.00  0.00    +0.000 C 
ENDBRANCH  22  23
BRANCH  25  26
ATOM     26  O   UNL     1      14.882 -60.600  18.303  0.00  0.00    +0.000 OA
ATOM     27  C   UNL     1      14.526 -61.512  19.314  0.00  0.00    +0.000 C 
ENDBRANCH  25  26
BRANCH   3   4
ATOM      4  C   UNL     1       8.423 -59.661  15.715  0.00  0.00    +0.000 C 
BRANCH   4   5
ATOM      5  C   UNL     1       7.082 -58.910  15.586  0.00  0.00    +0.000 C 
ATOM      6  C   UNL     1       6.110 -59.351  16.693  0.00  0.00    +0.000 C 
ATOM      7  C   UNL     1       4.774 -58.598  16.600  0.00  0.00    +0.000 C 
ATOM      8  N   UNL     1       4.961 -57.155  16.670  0.00  0.00    +0.000 NA
ATOM     16  C   UNL     1       5.839 -56.698  15.601  0.00  0.00    +0.000 C 
ATOM     17  C   UNL     1       7.214 -57.382  15.651  0.00  0.00    +0.000 C 
BRANCH   8   9
ATOM      9  C   UNL     1       3.675 -56.465  16.641  0.00  0.00    +0.000 C 
BRANCH   9  10
ATOM     10  C   UNL     1       3.480 -55.625  17.888  0.00  0.00    +0.000 A 
ATOM     11  C   UNL     1       2.450 -55.870  18.717  0.00  0.00    +0.000 A 
ATOM     12  C   UNL     1       2.267 -55.136  19.826  0.00  0.00    +0.000 A 
ATOM     13  C   UNL     1       3.116 -54.141  20.118  0.00  0.00    +0.000 A 
ATOM     14  C   UNL     1       4.147 -53.884  19.299  0.00  0.00    +0.000 A 
ATOM     15  C   UNL     1       4.324 -54.622  18.192  0.00  0.00    +0.000 A 
ENDBRANCH   9  10
ENDBRANCH   8   9
ENDBRANCH   4   5
ENDBRANCH   3   4
TORSDOF 6
ENDMDL
MODEL 5
REMARK VINA RESULT:      -6.1     38.953     41.013
REMARK  Name = Fragment
REMARK  8 active torsions:
REMARK  status: ('A' for Active; 'I' for Inactive)
REMARK    1  A    between atoms: C_3  and  C_4
REMARK    2  A    between atoms: C_4  and  C_5
REMARK    3  A    between atoms: N_8  and  C_9
REMARK    4  A    between atoms: C_9  and  C_10
REMARK    5  A    between atoms: C_22  and  O_23
REMARK    6  A    between atoms: O_23  and  C_24
REMARK    7  A    between atoms: C_25  and  O_26
REMARK    8  A    between atoms: O_26  and  C_27
REMARK                            x       y       z     vdW  Elec       q    Type
REMARK                         _______ _______ _______ _____ _____    ______ ____
ROOT
ATOM      1  O   UNL     1       6.287 -14.714  48.105  0.00  0.00    +0.000 OA
ATOM      2  C   UNL     1       6.389 -15.471  49.043  0.00  0.00    +0.000 C 
ATOM      3  C   UNL     1       5.287 -15.725  50.081  0.00  0.00    +0.000 C 
ATOM     18  C   UNL     1       5.884 -16.778  51.044  0.00  0.00    +0.000 C 
ATOM     19  C   UNL     1       7.251 -16.959  50.458  0.00  0.00    +0.000 A 
ATOM     20  C   UNL     1       7.465 -16.226  49.370  0.00  0.00    +0.000 A 
ATOM     21  C   UNL     1       8.638 -16.282  48.729  0.00  0.00    +0.000 A 
ATOM     22  C   UNL     1       9.641 -17.076  49.167  0.00  0.00    +0.000 A 
ATOM     25  C   UNL     1       9.420 -17.849  50.267  0.00  0.00    +0.000 A 
ATOM     28  C   UNL     1       8.229 -17.757  50.898  0.00  0.00    +0.000 A 
ENDROOT
BRANCH  22  23
ATOM     23  O   UNL     1      10.847 -17.158  48.510  0.00  0.00    +0.000 OA
ATOM     24  C   UNL     1      11.529 -15.984  48.134  0.00  0.00    +0.000 C 
ENDBRANCH  22  23
BRANCH  25  26
ATOM     26  O   UNL     1      10.333 -18.699  50.857  0.00  0.00    +0.000 OA
ATOM     27  C   UNL     1       9.906 -19.749  51.693  0.00  0.00    +0.000 C 
ENDBRANCH  25  26
BRANCH   3   4
ATOM      4  C   UNL     1       3.954 -16.136  49.432  0.00  0.00    +0.000 C 
BRANCH   4   5
ATOM      5  C   UNL     1       3.924 -17.562  48.844  0.00  0.00    +0.000 C 
ATOM      6  C   UNL     1       2.485 -18.106  48.829  0.00  0.00    +0.000 C 
ATOM      7  C   UNL     1       2.425 -19.518  48.225  0.00  0.00    +0.000 C 
ATOM      8  N   UNL     1       2.965 -19.550  46.873  0.00  0.00    +0.000 NA
ATOM     16  C   UNL     1       4.346 -19.086  46.860  0.00  0.00    +0.000 C 
ATOM     17  C   UNL     1       4.482 -17.661  47.418  0.00  0.00    +0.000 C 
BRANCH   8   9
ATOM      9  C   UNL     1       2.842 -20.886  46.298  0.00  0.00    +0.000 C 
BRANCH   9  10
ATOM     10  C   UNL     1       3.070 -20.856  44.799  0.00  0.00    +0.000 A 
ATOM     11  C   UNL     1       2.852 -19.727  44.102  0.00  0.00    +0.000 A 
ATOM     12  C   UNL     1       3.053 -19.685  42.776  0.00  0.00    +0.000 A 
ATOM     13  C   UNL     1       3.474 -20.779  42.127  0.00  0.00    +0.000 A 
ATOM     14  C   UNL     1       3.693 -21.913  42.810  0.00  0.00    +0.000 A 
ATOM     15  C   UNL     1       3.491 -21.948  44.136  0.00  0.00    +0.000 A 
ENDBRANCH   9  10
ENDBRANCH   8   9
ENDBRANCH   4   5
ENDBRANCH   3   4
TORSDOF 6
ENDMDL
MODEL 6
REMARK VINA RESULT:      -6.1     35.125     37.444
REMARK  Name = Fragment
REMARK  8 active torsions:
REMARK  status: ('A' for Active; 'I' for Inactive)
REMARK    1  A    between atoms: C_3  and  C_4
REMARK    2  A    between atoms: C_4  and  C_5
REMARK    3  A    between atoms: N_8  and  C_9
REMARK    4  A    between atoms: C_9  and  C_10
REMARK    5  A    between atoms: C_22  and  O_23
REMARK    6  A    between atoms: O_23  and  C_24
REMARK    7  A    between atoms: C_25  and  O_26
REMARK    8  A    between atoms: O_26  and  C_27
REMARK                            x       y       z     vdW  Elec       q    Type
REMARK                         _______ _______ _______ _____ _____    ______ ____
ROOT
ATOM      1  O   UNL     1       2.973 -22.024  42.808  0.00  0.00    +0.000 OA
ATOM      2  C   UNL     1       3.135 -21.010  43.447  0.00  0.00    +0.000 C 
ATOM      3  C   UNL     1       3.653 -19.688  42.866  0.00  0.00    +0.000 C 
ATOM     18  C   UNL     1       3.656 -18.703  44.059  0.00  0.00    +0.000 C 
ATOM     19  C   UNL     1       3.177 -19.594  45.166  0.00  0.00    +0.000 A 
ATOM     20  C   UNL     1       2.907 -20.834  44.771  0.00  0.00    +0.000 A 
ATOM     21  C   UNL     1       2.464 -21.747  45.643  0.00  0.00    +0.000 A 
ATOM     22  C   UNL     1       2.287 -21.443  46.949  0.00  0.00    +0.000 A 
ATOM     25  C   UNL     1       2.538 -20.167  47.356  0.00  0.00    +0.000 A 
ATOM     28  C   UNL     1       2.996 -19.274  46.450  0.00  0.00    +0.000 A 
ENDROOT
BRANCH  22  23
ATOM     23  O   UNL     1       1.817 -22.365  47.855  0.00  0.00    +0.000 OA
ATOM     24  C   UNL     1       0.436 -22.463  48.113  0.00  0.00    +0.000 C 
ENDBRANCH  22  23
BRANCH  25  26
ATOM     26  O   UNL     1       2.426 -19.690  48.646  0.00  0.00    +0.000 OA
ATOM     27  C   UNL     1       2.709 -18.344  48.945  0.00  0.00    +0.000 C 
ENDBRANCH  25  26
BRANCH   3   4
ATOM      4  C   UNL     1       2.832 -19.218  41.653  0.00  0.00    +0.000 C 
BRANCH   4   5
ATOM      5  C   UNL     1       3.586 -19.228  40.307  0.00  0.00    +0.000 C 
ATOM      6  C   UNL     1       3.061 -18.111  39.389  0.00  0.00    +0.000 C 
ATOM      7  C   UNL     1       3.814 -18.084  38.050  0.00  0.00    +0.000 C 
ATOM      8  N   UNL     1       5.248 -17.915  38.240  0.00  0.00    +0.000 NA
ATOM     16  C   UNL     1       5.786 -18.988  39.066  0.00  0.00    +0.000 C 
ATOM     17  C   UNL     1       5.105 -19.055  40.442  0.00  0.00    +0.000 C 
BRANCH   8   9
ATOM      9  C   UNL     1       5.934 -17.832  36.954  0.00  0.00    +0.000 C 
BRANCH   9  10
ATOM     10  C   UNL     1       6.677 -16.517  36.819  0.00  0.00    +0.000 A 
ATOM     11  C   UNL     1       6.673 -15.628  37.829  0.00  0.00    +0.000 A 
ATOM     12  C   UNL     1       7.329 -14.462  37.724  0.00  0.00    +0.000 A 
ATOM     13  C   UNL     1       7.998 -14.168  36.601  0.00  0.00    +0.000 A 
ATOM     14  C   UNL     1       8.009 -15.044  35.585  0.00  0.00    +0.000 A 
ATOM     15  C   UNL     1       7.352 -16.209  35.696  0.00  0.00    +0.000 A 
ENDBRANCH   9  10
ENDBRANCH   8   9
ENDBRANCH   4   5
ENDBRANCH   3   4
TORSDOF 6
ENDMDL
MODEL 7
REMARK VINA RESULT:      -6.0      4.885     10.127
REMARK  Name = Fragment
REMARK  8 active torsions:
REMARK  status: ('A' for Active; 'I' for Inactive)
REMARK    1  A    between atoms: C_3  and  C_4
REMARK    2  A    between atoms: C_4  and  C_5
REMARK    3  A    between atoms: N_8  and  C_9
REMARK    4  A    between atoms: C_9  and  C_10
REMARK    5  A    between atoms: C_22  and  O_23
REMARK    6  A    between atoms: O_23  and  C_24
REMARK    7  A    between atoms: C_25  and  O_26
REMARK    8  A    between atoms: O_26  and  C_27
REMARK                            x       y       z     vdW  Elec       q    Type
REMARK                         _______ _______ _______ _____ _____    ______ ____
ROOT
ATOM      1  O   UNL     1     -28.004 -41.956  30.974  0.00  0.00    +0.000 OA
ATOM      2  C   UNL     1     -26.964 -41.414  31.272  0.00  0.00    +0.000 C 
ATOM      3  C   UNL     1     -25.841 -41.079  30.281  0.00  0.00    +0.000 C 
ATOM     18  C   UNL     1     -24.755 -40.379  31.133  0.00  0.00    +0.000 C 
ATOM     19  C   UNL     1     -25.377 -40.439  32.495  0.00  0.00    +0.000 A 
ATOM     20  C   UNL     1     -26.579 -41.009  32.507  0.00  0.00    +0.000 A 
ATOM     21  C   UNL     1     -27.265 -41.132  33.648  0.00  0.00    +0.000 A 
ATOM     22  C   UNL     1     -26.760 -40.691  34.823  0.00  0.00    +0.000 A 
ATOM     25  C   UNL     1     -25.540 -40.083  34.815  0.00  0.00    +0.000 A 
ATOM     28  C   UNL     1     -24.869 -39.988  33.645  0.00  0.00    +0.000 A 
ENDROOT
BRANCH  22  23
ATOM     23  O   UNL     1     -27.459 -40.795  36.003  0.00  0.00    +0.000 OA
ATOM     24  C   UNL     1     -27.928 -42.049  36.438  0.00  0.00    +0.000 C 
ENDBRANCH  22  23
BRANCH  25  26
ATOM     26  O   UNL     1     -24.872 -39.591  35.917  0.00  0.00    +0.000 OA
ATOM     27  C   UNL     1     -24.033 -40.423  36.683  0.00  0.00    +0.000 C 
ENDBRANCH  25  26
BRANCH   3   4
ATOM      4  C   UNL     1     -26.343 -40.253  29.084  0.00  0.00    +0.000 C 
BRANCH   4   5
ATOM      5  C   UNL     1     -25.469 -40.337  27.816  0.00  0.00    +0.000 C 
ATOM      6  C   UNL     1     -24.370 -39.262  27.849  0.00  0.00    +0.000 C 
ATOM      7  C   UNL     1     -23.469 -39.340  26.607  0.00  0.00    +0.000 C 
ATOM      8  N   UNL     1     -22.853 -40.653  26.469  0.00  0.00    +0.000 NA
ATOM     16  C   UNL     1     -23.871 -41.692  26.384  0.00  0.00    +0.000 C 
ATOM     17  C   UNL     1     -24.792 -41.700  27.614  0.00  0.00    +0.000 C 
BRANCH   8   9
ATOM      9  C   UNL     1     -21.956 -40.685  25.318  0.00  0.00    +0.000 C 
BRANCH   9  10
ATOM     10  C   UNL     1     -20.608 -41.267  25.695  0.00  0.00    +0.000 A 
ATOM     11  C   UNL     1     -19.738 -41.638  24.739  0.00  0.00    +0.000 A 
ATOM     12  C   UNL     1     -18.540 -42.152  25.058  0.00  0.00    +0.000 A 
ATOM     13  C   UNL     1     -18.197 -42.305  26.345  0.00  0.00    +0.000 A 
ATOM     14  C   UNL     1     -19.056 -41.940  27.309  0.00  0.00    +0.000 A 
ATOM     15  C   UNL     1     -20.253 -41.426  26.983  0.00  0.00    +0.000 A 
ENDBRANCH   9  10
ENDBRANCH   8   9
ENDBRANCH   4   5
ENDBRANCH   3   4
TORSDOF 6
ENDMDL
MODEL 8
REMARK VINA RESULT:      -5.9     31.615     34.355
REMARK  Name = Fragment
REMARK  8 active torsions:
REMARK  status: ('A' for Active; 'I' for Inactive)
REMARK    1  A    between atoms: C_3  and  C_4
REMARK    2  A    between atoms: C_4  and  C_5
REMARK    3  A    between atoms: N_8  and  C_9
REMARK    4  A    between atoms: C_9  and  C_10
REMARK    5  A    between atoms: C_22  and  O_23
REMARK    6  A    between atoms: O_23  and  C_24
REMARK    7  A    between atoms: C_25  and  O_26
REMARK    8  A    between atoms: O_26  and  C_27
REMARK                            x       y       z     vdW  Elec       q    Type
REMARK                         _______ _______ _______ _____ _____    ______ ____
ROOT
ATOM      1  O   UNL     1     -10.834 -27.367  52.511  0.00  0.00    +0.000 OA
ATOM      2  C   UNL     1      -9.908 -27.395  53.290  0.00  0.00    +0.000 C 
ATOM      3  C   UNL     1      -8.431 -27.287  52.890  0.00  0.00    +0.000 C 
ATOM     18  C   UNL     1      -7.652 -27.345  54.226  0.00  0.00    +0.000 C 
ATOM     19  C   UNL     1      -8.775 -27.515  55.204  0.00  0.00    +0.000 A 
ATOM     20  C   UNL     1      -9.978 -27.531  54.636  0.00  0.00    +0.000 A 
ATOM     21  C   UNL     1     -11.081 -27.670  55.379  0.00  0.00    +0.000 A 
ATOM     22  C   UNL     1     -11.011 -27.807  56.722  0.00  0.00    +0.000 A 
ATOM     25  C   UNL     1      -9.784 -27.767  57.314  0.00  0.00    +0.000 A 
ATOM     28  C   UNL     1      -8.690 -27.638  56.531  0.00  0.00    +0.000 A 
ENDROOT
BRANCH  22  23
ATOM     23  O   UNL     1     -12.138 -27.935  57.502  0.00  0.00    +0.000 OA
ATOM     24  C   UNL     1     -12.749 -29.194  57.661  0.00  0.00    +0.000 C 
ENDBRANCH  22  23
BRANCH  25  26
ATOM     26  O   UNL     1      -9.530 -27.906  58.663  0.00  0.00    +0.000 OA
ATOM     27  C   UNL     1      -8.323 -27.441  59.221  0.00  0.00    +0.000 C 
ENDBRANCH  25  26
BRANCH   3   4
ATOM      4  C   UNL     1      -8.144 -26.038  52.038  0.00  0.00    +0.000 C 
BRANCH   4   5
ATOM      5  C   UNL     1      -8.057 -24.714  52.824  0.00  0.00    +0.000 C 
ATOM      6  C   UNL     1      -6.755 -23.970  52.481  0.00  0.00    +0.000 C 
ATOM      7  C   UNL     1      -6.656 -22.635  53.235  0.00  0.00    +0.000 C 
ATOM      8  N   UNL     1      -7.793 -21.770  52.951  0.00  0.00    +0.000 NA
ATOM     16  C   UNL     1      -9.042 -22.427  53.313  0.00  0.00    +0.000 C 
ATOM     17  C   UNL     1      -9.231 -23.759  52.568  0.00  0.00    +0.000 C 
BRANCH   8   9
ATOM      9  C   UNL     1      -7.648 -20.485  53.629  0.00  0.00    +0.000 C 
BRANCH   9  10
ATOM     10  C   UNL     1      -7.667 -19.340  52.635  0.00  0.00    +0.000 A 
ATOM     11  C   UNL     1      -6.545 -18.643  52.382  0.00  0.00    +0.000 A 
ATOM     12  C   UNL     1      -6.546 -17.629  51.503  0.00  0.00    +0.000 A 
ATOM     13  C   UNL     1      -7.676 -17.297  50.863  0.00  0.00    +0.000 A 
ATOM     14  C   UNL     1      -8.803 -17.984  51.107  0.00  0.00    +0.000 A 
ATOM     15  C   UNL     1      -8.795 -18.997  51.987  0.00  0.00    +0.000 A 
ENDBRANCH   9  10
ENDBRANCH   8   9
ENDBRANCH   4   5
ENDBRANCH   3   4
TORSDOF 6
ENDMDL
MODEL 9
REMARK VINA RESULT:      -5.8      6.123     10.048
REMARK  Name = Fragment
REMARK  8 active torsions:
REMARK  status: ('A' for Active; 'I' for Inactive)
REMARK    1  A    between atoms: C_3  and  C_4
REMARK    2  A    between atoms: C_4  and  C_5
REMARK    3  A    between atoms: N_8  and  C_9
REMARK    4  A    between atoms: C_9  and  C_10
REMARK    5  A    between atoms: C_22  and  O_23
REMARK    6  A    between atoms: O_23  and  C_24
REMARK    7  A    between atoms: C_25  and  O_26
REMARK    8  A    between atoms: O_26  and  C_27
REMARK                            x       y       z     vdW  Elec       q    Type
REMARK                         _______ _______ _______ _____ _____    ______ ____
ROOT
ATOM      1  O   UNL     1     -25.604 -48.026  28.723  0.00  0.00    +0.000 OA
ATOM      2  C   UNL     1     -25.566 -47.706  27.557  0.00  0.00    +0.000 C 
ATOM      3  C   UNL     1     -25.208 -46.303  27.050  0.00  0.00    +0.000 C 
ATOM     18  C   UNL     1     -25.271 -46.410  25.507  0.00  0.00    +0.000 C 
ATOM     19  C   UNL     1     -25.691 -47.839  25.337  0.00  0.00    +0.000 A 
ATOM     20  C   UNL     1     -25.831 -48.493  26.486  0.00  0.00    +0.000 A 
ATOM     21  C   UNL     1     -26.197 -49.780  26.499  0.00  0.00    +0.000 A 
ATOM     22  C   UNL     1     -26.442 -50.452  25.351  0.00  0.00    +0.000 A 
ATOM     25  C   UNL     1     -26.276 -49.795  24.168  0.00  0.00    +0.000 A 
ATOM     28  C   UNL     1     -25.918 -48.492  24.194  0.00  0.00    +0.000 A 
ENDROOT
BRANCH  22  23
ATOM     23  O   UNL     1     -26.803 -51.779  25.346  0.00  0.00    +0.000 OA
ATOM     24  C   UNL     1     -26.214 -52.675  26.260  0.00  0.00    +0.000 C 
ENDBRANCH  22  23
BRANCH  25  26
ATOM     26  O   UNL     1     -26.496 -50.320  22.912  0.00  0.00    +0.000 OA
ATOM     27  C   UNL     1     -27.683 -50.035  22.209  0.00  0.00    +0.000 C 
ENDBRANCH  25  26
BRANCH   3   4
ATOM      4  C   UNL     1     -23.859 -45.807  27.600  0.00  0.00    +0.000 C 
BRANCH   4   5
ATOM      5  C   UNL     1     -23.095 -44.832  26.681  0.00  0.00    +0.000 C 
ATOM      6  C   UNL     1     -22.770 -43.530  27.432  0.00  0.00    +0.000 C 
ATOM      7  C   UNL     1     -21.987 -42.550  26.545  0.00  0.00    +0.000 C 
ATOM      8  N   UNL     1     -20.751 -43.140  26.049  0.00  0.00    +0.000 NA
ATOM     16  C   UNL     1     -21.029 -44.352  25.289  0.00  0.00    +0.000 C 
ATOM     17  C   UNL     1     -21.781 -45.399  26.125  0.00  0.00    +0.000 C 
BRANCH   8   9
ATOM      9  C   UNL     1     -19.996 -42.172  25.260  0.00  0.00    +0.000 C 
BRANCH   9  10
ATOM     10  C   UNL     1     -18.503 -42.355  25.458  0.00  0.00    +0.000 A 
ATOM     11  C   UNL     1     -17.677 -42.390  24.398  0.00  0.00    +0.000 A 
ATOM     12  C   UNL     1     -16.354 -42.548  24.558  0.00  0.00    +0.000 A 
ATOM     13  C   UNL     1     -15.839 -42.676  25.789  0.00  0.00    +0.000 A 
ATOM     14  C   UNL     1     -16.652 -42.644  26.856  0.00  0.00    +0.000 A 
ATOM     15  C   UNL     1     -17.974 -42.485  26.688  0.00  0.00    +0.000 A 
ENDBRANCH   9  10
ENDBRANCH   8   9
ENDBRANCH   4   5
ENDBRANCH   3   4
TORSDOF 6
ENDMDL
MODEL 10
REMARK VINA RESULT:      -5.5     22.512     25.337
REMARK  Name = Fragment
REMARK  8 active torsions:
REMARK  status: ('A' for Active; 'I' for Inactive)
REMARK    1  A    between atoms: C_3  and  C_4
REMARK    2  A    between atoms: C_4  and  C_5
REMARK    3  A    between atoms: N_8  and  C_9
REMARK    4  A    between atoms: C_9  and  C_10
REMARK    5  A    between atoms: C_22  and  O_23
REMARK    6  A    between atoms: O_23  and  C_24
REMARK    7  A    between atoms: C_25  and  O_26
REMARK    8  A    between atoms: O_26  and  C_27
REMARK                            x       y       z     vdW  Elec       q    Type
REMARK                         _______ _______ _______ _____ _____    ______ ____
ROOT
ATOM      1  O   UNL     1      -9.984 -65.439  32.395  0.00  0.00    +0.000 OA
ATOM      2  C   UNL     1      -9.270 -64.607  32.905  0.00  0.00    +0.000 C 
ATOM      3  C   UNL     1      -9.775 -63.335  33.602  0.00  0.00    +0.000 C 
ATOM     18  C   UNL     1      -8.496 -62.624  34.105  0.00  0.00    +0.000 C 
ATOM     19  C   UNL     1      -7.434 -63.555  33.601  0.00  0.00    +0.000 A 
ATOM     20  C   UNL     1      -7.916 -64.616  32.961  0.00  0.00    +0.000 A 
ATOM     21  C   UNL     1      -7.093 -65.542  32.457  0.00  0.00    +0.000 A 
ATOM     22  C   UNL     1      -5.750 -65.426  32.575  0.00  0.00    +0.000 A 
ATOM     25  C   UNL     1      -5.250 -64.354  33.251  0.00  0.00    +0.000 A 
ATOM     28  C   UNL     1      -6.111 -63.432  33.735  0.00  0.00    +0.000 A 
ENDROOT
BRANCH  22  23
ATOM     23  O   UNL     1      -4.890 -66.378  32.077  0.00  0.00    +0.000 OA
ATOM     24  C   UNL     1      -4.349 -66.235  30.784  0.00  0.00    +0.000 C 
ENDBRANCH  22  23
BRANCH  25  26
ATOM     26  O   UNL     1      -3.914 -64.073  33.450  0.00  0.00    +0.000 OA
ATOM     27  C   UNL     1      -3.309 -64.293  34.703  0.00  0.00    +0.000 C 
ENDBRANCH  25  26
BRANCH   3   4
ATOM      4  C   UNL     1     -10.809 -63.639  34.699  0.00  0.00    +0.000 C 
BRANCH   4   5
ATOM      5  C   UNL     1     -12.261 -63.246  34.358  0.00  0.00    +0.000 C 
ATOM      6  C   UNL     1     -12.288 -62.262  33.176  0.00  0.00    +0.000 C 
ATOM      7  C   UNL     1     -13.726 -61.873  32.801  0.00  0.00    +0.000 C 
ATOM      8  N   UNL     1     -14.533 -63.041  32.473  0.00  0.00    +0.000 NA
ATOM     16  C   UNL     1     -14.569 -63.971  33.593  0.00  0.00    +0.000 C 
ATOM     17  C   UNL     1     -13.163 -64.436  34.004  0.00  0.00    +0.000 C 
BRANCH   8   9
ATOM      9  C   UNL     1     -15.876 -62.642  32.062  0.00  0.00    +0.000 C 
BRANCH   9  10
ATOM     10  C   UNL     1     -16.091 -62.902  30.583  0.00  0.00    +0.000 A 
ATOM     11  C   UNL     1     -17.183 -62.421  29.962  0.00  0.00    +0.000 A 
ATOM     12  C   UNL     1     -17.385 -62.640  28.654  0.00  0.00    +0.000 A 
ATOM     13  C   UNL     1     -16.494 -63.349  27.947  0.00  0.00    +0.000 A 
ATOM     14  C   UNL     1     -15.401 -63.835  28.554  0.00  0.00    +0.000 A 
ATOM     15  C   UNL     1     -15.204 -63.612  29.863  0.00  0.00    +0.000 A 
ENDBRANCH   9  10
ENDBRANCH   8   9
ENDBRANCH   4   5
ENDBRANCH   3   4
TORSDOF 6
ENDMDL
MODEL 11
REMARK VINA RESULT:      -5.5     36.317     38.718
REMARK  Name = Fragment
REMARK  8 active torsions:
REMARK  status: ('A' for Active; 'I' for Inactive)
REMARK    1  A    between atoms: C_3  and  C_4
REMARK    2  A    between atoms: C_4  and  C_5
REMARK    3  A    between atoms: N_8  and  C_9
REMARK    4  A    between atoms: C_9  and  C_10
REMARK    5  A    between atoms: C_22  and  O_23
REMARK    6  A    between atoms: O_23  and  C_24
REMARK    7  A    between atoms: C_25  and  O_26
REMARK    8  A    between atoms: O_26  and  C_27
REMARK                            x       y       z     vdW  Elec       q    Type
REMARK                         _______ _______ _______ _____ _____    ______ ____
ROOT
ATOM      1  O   UNL     1      -0.183 -11.314  47.096  0.00  0.00    +0.000 OA
ATOM      2  C   UNL     1       0.162 -11.968  46.139  0.00  0.00    +0.000 C 
ATOM      3  C   UNL     1       1.422 -12.842  46.089  0.00  0.00    +0.000 C 
ATOM     18  C   UNL     1       1.404 -13.486  44.683  0.00  0.00    +0.000 C 
ATOM     19  C   UNL     1       0.166 -12.873  44.103  0.00  0.00    +0.000 A 
ATOM     20  C   UNL     1      -0.469 -12.060  44.943  0.00  0.00    +0.000 A 
ATOM     21  C   UNL     1      -1.595 -11.440  44.573  0.00  0.00    +0.000 A 
ATOM     22  C   UNL     1      -2.118 -11.612  43.337  0.00  0.00    +0.000 A 
ATOM     25  C   UNL     1      -1.487 -12.462  42.480  0.00  0.00    +0.000 A 
ATOM     28  C   UNL     1      -0.344 -13.061  42.883  0.00  0.00    +0.000 A 
ENDROOT
BRANCH  22  23
ATOM     23  O   UNL     1      -3.284 -10.994  42.947  0.00  0.00    +0.000 OA
ATOM     24  C   UNL     1      -4.490 -11.273  43.618  0.00  0.00    +0.000 C 
ENDBRANCH  22  23
BRANCH  25  26
ATOM     26  O   UNL     1      -1.871 -12.741  41.184  0.00  0.00    +0.000 OA
ATOM     27  C   UNL     1      -2.891 -13.675  40.920  0.00  0.00    +0.000 C 
ENDBRANCH  25  26
BRANCH   3   4
ATOM      4  C   UNL     1       1.485 -13.848  47.251  0.00  0.00    +0.000 C 
BRANCH   4   5
ATOM      5  C   UNL     1       2.044 -15.238  46.886  0.00  0.00    +0.000 C 
ATOM      6  C   UNL     1       3.079 -15.692  47.928  0.00  0.00    +0.000 C 
ATOM      7  C   UNL     1       3.634 -17.086  47.599  0.00  0.00    +0.000 C 
ATOM      8  N   UNL     1       2.575 -18.081  47.509  0.00  0.00    +0.000 NA
ATOM     16  C   UNL     1       1.602 -17.706  46.492  0.00  0.00    +0.000 C 
ATOM     17  C   UNL     1       0.973 -16.332  46.774  0.00  0.00    +0.000 C 
BRANCH   8   9
ATOM      9  C   UNL     1       3.131 -19.407  47.256  0.00  0.00    +0.000 C 
BRANCH   9  10
ATOM     10  C   UNL     1       2.031 -20.441  47.119  0.00  0.00    +0.000 A 
ATOM     11  C   UNL     1       1.625 -20.844  45.902  0.00  0.00    +0.000 A 
ATOM     12  C   UNL     1       0.654 -21.760  45.766  0.00  0.00    +0.000 A 
ATOM     13  C   UNL     1       0.072 -22.287  46.852  0.00  0.00    +0.000 A 
ATOM     14  C   UNL     1       0.466 -21.893  48.073  0.00  0.00    +0.000 A 
ATOM     15  C   UNL     1       1.438 -20.977  48.202  0.00  0.00    +0.000 A 
ENDBRANCH   9  10
ENDBRANCH   8   9
ENDBRANCH   4   5
ENDBRANCH   3   4
TORSDOF 6
ENDMDL
MODEL 12
REMARK VINA RESULT:      -5.4     12.080     13.954
REMARK  Name = Fragment
REMARK  8 active torsions:
REMARK  status: ('A' for Active; 'I' for Inactive)
REMARK    1  A    between atoms: C_3  and  C_4
REMARK    2  A    between atoms: C_4  and  C_5
REMARK    3  A    between atoms: N_8  and  C_9
REMARK    4  A    between atoms: C_9  and  C_10
REMARK    5  A    between atoms: C_22  and  O_23
REMARK    6  A    between atoms: O_23  and  C_24
REMARK    7  A    between atoms: C_25  and  O_26
REMARK    8  A    between atoms: O_26  and  C_27
REMARK                            x       y       z     vdW  Elec       q    Type
REMARK                         _______ _______ _______ _____ _____    ______ ____
ROOT
ATOM      1  O   UNL     1     -25.962 -54.671  22.917  0.00  0.00    +0.000 OA
ATOM      2  C   UNL     1     -25.295 -53.711  23.227  0.00  0.00    +0.000 C 
ATOM      3  C   UNL     1     -25.085 -53.224  24.667  0.00  0.00    +0.000 C 
ATOM     18  C   UNL     1     -24.147 -52.000  24.540  0.00  0.00    +0.000 C 
ATOM     19  C   UNL     1     -23.976 -51.924  23.053  0.00  0.00    +0.000 A 
ATOM     20  C   UNL     1     -24.620 -52.883  22.393  0.00  0.00    +0.000 A 
ATOM     21  C   UNL     1     -24.559 -52.952  21.059  0.00  0.00    +0.000 A 
ATOM     22  C   UNL     1     -23.852 -52.052  20.340  0.00  0.00    +0.000 A 
ATOM     25  C   UNL     1     -23.168 -51.081  21.010  0.00  0.00    +0.000 A 
ATOM     28  C   UNL     1     -23.263 -51.034  22.358  0.00  0.00    +0.000 A 
ENDROOT
BRANCH  22  23
ATOM     23  O   UNL     1     -23.765 -52.119  18.968  0.00  0.00    +0.000 OA
ATOM     24  C   UNL     1     -24.923 -51.974  18.179  0.00  0.00    +0.000 C 
ENDBRANCH  22  23
BRANCH  25  26
ATOM     26  O   UNL     1     -22.414 -50.078  20.438  0.00  0.00    +0.000 OA
ATOM     27  C   UNL     1     -23.031 -48.963  19.841  0.00  0.00    +0.000 C 
ENDBRANCH  25  26
BRANCH   3   4
ATOM      4  C   UNL     1     -24.560 -54.337  25.591  0.00  0.00    +0.000 C 
BRANCH   4   5
ATOM      5  C   UNL     1     -25.288 -54.462  26.945  0.00  0.00    +0.000 C 
ATOM      6  C   UNL     1     -24.958 -55.809  27.610  0.00  0.00    +0.000 C 
ATOM      7  C   UNL     1     -25.653 -55.948  28.973  0.00  0.00    +0.000 C 
ATOM      8  N   UNL     1     -25.290 -54.865  29.877  0.00  0.00    +0.000 NA
ATOM     16  C   UNL     1     -25.637 -53.574  29.297  0.00  0.00    +0.000 C 
ATOM     17  C   UNL     1     -24.947 -53.346  27.942  0.00  0.00    +0.000 C 
BRANCH   8   9
ATOM      9  C   UNL     1     -25.914 -55.051  31.183  0.00  0.00    +0.000 C 
BRANCH   9  10
ATOM     10  C   UNL     1     -24.912 -54.828  32.300  0.00  0.00    +0.000 A 
ATOM     11  C   UNL     1     -23.865 -55.659  32.448  0.00  0.00    +0.000 A 
ATOM     12  C   UNL     1     -22.970 -55.473  33.430  0.00  0.00    +0.000 A 
ATOM     13  C   UNL     1     -23.113 -54.448  34.282  0.00  0.00    +0.000 A 
ATOM     14  C   UNL     1     -24.154 -53.612  34.147  0.00  0.00    +0.000 A 
ATOM     15  C   UNL     1     -25.046 -53.804  33.163  0.00  0.00    +0.000 A 
ENDBRANCH   9  10
ENDBRANCH   8   9
ENDBRANCH   4   5
ENDBRANCH   3   4
TORSDOF 6
ENDMDL
MODEL 13
REMARK VINA RESULT:      -5.4     38.027     40.329
REMARK  Name = Fragment
REMARK  8 active torsions:
REMARK  status: ('A' for Active; 'I' for Inactive)
REMARK    1  A    between atoms: C_3  and  C_4
REMARK    2  A    between atoms: C_4  and  C_5
REMARK    3  A    between atoms: N_8  and  C_9
REMARK    4  A    between atoms: C_9  and  C_10
REMARK    5  A    between atoms: C_22  and  O_23
REMARK    6  A    between atoms: O_23  and  C_24
REMARK    7  A    between atoms: C_25  and  O_26
REMARK    8  A    between atoms: O_26  and  C_27
REMARK                            x       y       z     vdW  Elec       q    Type
REMARK                         _______ _______ _______ _____ _____    ______ ____
ROOT
ATOM      1  O   UNL     1       9.879 -54.844  52.868  0.00  0.00    +0.000 OA
ATOM      2  C   UNL     1      10.034 -54.293  51.802  0.00  0.00    +0.000 C 
ATOM      3  C   UNL     1       9.188 -54.566  50.550  0.00  0.00    +0.000 C 
ATOM     18  C   UNL     1       9.751 -53.607  49.474  0.00  0.00    +0.000 C 
ATOM     19  C   UNL     1      10.860 -52.944  50.234  0.00  0.00    +0.000 A 
ATOM     20  C   UNL     1      10.962 -53.355  51.494  0.00  0.00    +0.000 A 
ATOM     21  C   UNL     1      11.901 -52.852  52.303  0.00  0.00    +0.000 A 
ATOM     22  C   UNL     1      12.778 -51.920  51.866  0.00  0.00    +0.000 A 
ATOM     25  C   UNL     1      12.665 -51.476  50.583  0.00  0.00    +0.000 A 
ATOM     28  C   UNL     1      11.712 -52.016  49.790  0.00  0.00    +0.000 A 
ENDROOT
BRANCH  22  23
ATOM     23  O   UNL     1      13.739 -51.381  52.689  0.00  0.00    +0.000 OA
ATOM     24  C   UNL     1      13.771 -51.720  54.056  0.00  0.00    +0.000 C 
ENDBRANCH  22  23
BRANCH  25  26
ATOM     26  O   UNL     1      13.481 -50.546  49.972  0.00  0.00    +0.000 OA
ATOM     27  C   UNL     1      13.440 -49.191  50.351  0.00  0.00    +0.000 C 
ENDBRANCH  25  26
BRANCH   3   4
ATOM      4  C   UNL     1       7.681 -54.412  50.816  0.00  0.00    +0.000 C 
BRANCH   4   5
ATOM      5  C   UNL     1       6.885 -55.732  50.860  0.00  0.00    +0.000 C 
ATOM      6  C   UNL     1       5.717 -55.689  49.860  0.00  0.00    +0.000 C 
ATOM      7  C   UNL     1       4.922 -57.003  49.867  0.00  0.00    +0.000 C 
ATOM      8  N   UNL     1       5.769 -58.149  49.567  0.00  0.00    +0.000 NA
ATOM     16  C   UNL     1       6.859 -58.248  50.529  0.00  0.00    +0.000 C 
ATOM     17  C   UNL     1       7.726 -56.979  50.552  0.00  0.00    +0.000 C 
BRANCH   8   9
ATOM      9  C   UNL     1       4.982 -59.377  49.520  0.00  0.00    +0.000 C 
BRANCH   9  10
ATOM     10  C   UNL     1       5.433 -60.269  48.379  0.00  0.00    +0.000 A 
ATOM     11  C   UNL     1       5.060 -61.560  48.340  0.00  0.00    +0.000 A 
ATOM     12  C   UNL     1       5.449 -62.361  47.335  0.00  0.00    +0.000 A 
ATOM     13  C   UNL     1       6.222 -61.876  46.353  0.00  0.00    +0.000 A 
ATOM     14  C   UNL     1       6.602 -60.589  46.381  0.00  0.00    +0.000 A 
ATOM     15  C   UNL     1       6.209 -59.794  47.388  0.00  0.00    +0.000 A 
ENDBRANCH   9  10
ENDBRANCH   8   9
ENDBRANCH   4   5
ENDBRANCH   3   4
TORSDOF 6
ENDMDL
MODEL 14
REMARK VINA RESULT:      -5.3      9.694     12.040
REMARK  Name = Fragment
REMARK  8 active torsions:
REMARK  status: ('A' for Active; 'I' for Inactive)
REMARK    1  A    between atoms: C_3  and  C_4
REMARK    2  A    between atoms: C_4  and  C_5
REMARK    3  A    between atoms: N_8  and  C_9
REMARK    4  A    between atoms: C_9  and  C_10
REMARK    5  A    between atoms: C_22  and  O_23
REMARK    6  A    between atoms: O_23  and  C_24
REMARK    7  A    between atoms: C_25  and  O_26
REMARK    8  A    between atoms: O_26  and  C_27
REMARK                            x       y       z     vdW  Elec       q    Type
REMARK                         _______ _______ _______ _____ _____    ______ ____
ROOT
ATOM      1  O   UNL     1     -22.674 -52.754  19.917  0.00  0.00    +0.000 OA
ATOM      2  C   UNL     1     -23.733 -52.360  20.349  0.00  0.00    +0.000 C 
ATOM      3  C   UNL     1     -24.083 -52.262  21.840  0.00  0.00    +0.000 C 
ATOM     18  C   UNL     1     -25.519 -51.685  21.874  0.00  0.00    +0.000 C 
ATOM     19  C   UNL     1     -25.813 -51.564  20.409  0.00  0.00    +0.000 A 
ATOM     20  C   UNL     1     -24.803 -51.942  19.631  0.00  0.00    +0.000 A 
ATOM     21  C   UNL     1     -24.911 -51.887  18.298  0.00  0.00    +0.000 A 
ATOM     22  C   UNL     1     -26.046 -51.456  17.703  0.00  0.00    +0.000 A 
ATOM     25  C   UNL     1     -27.076 -51.043  18.494  0.00  0.00    +0.000 A 
ATOM     28  C   UNL     1     -26.937 -51.125  19.836  0.00  0.00    +0.000 A 
ENDROOT
BRANCH  22  23
ATOM     23  O   UNL     1     -26.167 -51.378  16.334  0.00  0.00    +0.000 OA
ATOM     24  C   UNL     1     -25.656 -50.263  15.642  0.00  0.00    +0.000 C 
ENDBRANCH  22  23
BRANCH  25  26
ATOM     26  O   UNL     1     -28.304 -50.592  18.057  0.00  0.00    +0.000 OA
ATOM     27  C   UNL     1     -28.555 -49.214  17.908  0.00  0.00    +0.000 C 
ENDBRANCH  25  26
BRANCH   3   4
ATOM      4  C   UNL     1     -23.048 -51.446  22.633  0.00  0.00    +0.000 C 
BRANCH   4   5
ATOM      5  C   UNL     1     -23.426 -49.972  22.880  0.00  0.00    +0.000 C 
ATOM      6  C   UNL     1     -23.673 -49.723  24.378  0.00  0.00    +0.000 C 
ATOM      7  C   UNL     1     -24.028 -48.254  24.653  0.00  0.00    +0.000 C 
ATOM      8  N   UNL     1     -22.988 -47.350  24.181  0.00  0.00    +0.000 NA
ATOM     16  C   UNL     1     -22.765 -47.525  22.752  0.00  0.00    +0.000 C 
ATOM     17  C   UNL     1     -22.368 -48.968  22.402  0.00  0.00    +0.000 C 
BRANCH   8   9
ATOM      9  C   UNL     1     -23.320 -45.966  24.507  0.00  0.00    +0.000 C 
BRANCH   9  10
ATOM     10  C   UNL     1     -22.798 -45.592  25.881  0.00  0.00    +0.000 A 
ATOM     11  C   UNL     1     -21.489 -45.346  26.067  0.00  0.00    +0.000 A 
ATOM     12  C   UNL     1     -21.014 -45.011  27.276  0.00  0.00    +0.000 A 
ATOM     13  C   UNL     1     -21.848 -44.920  28.322  0.00  0.00    +0.000 A 
ATOM     14  C   UNL     1     -23.156 -45.164  28.152  0.00  0.00    +0.000 A 
ATOM     15  C   UNL     1     -23.625 -45.498  26.939  0.00  0.00    +0.000 A 
ENDBRANCH   9  10
ENDBRANCH   8   9
ENDBRANCH   4   5
ENDBRANCH   3   4
TORSDOF 6
ENDMDL
MODEL 15
REMARK VINA RESULT:      -5.0     19.137     21.837
REMARK  Name = Fragment
REMARK  8 active torsions:
REMARK  status: ('A' for Active; 'I' for Inactive)
REMARK    1  A    between atoms: C_3  and  C_4
REMARK    2  A    between atoms: C_4  and  C_5
REMARK    3  A    between atoms: N_8  and  C_9
REMARK    4  A    between atoms: C_9  and  C_10
REMARK    5  A    between atoms: C_22  and  O_23
REMARK    6  A    between atoms: O_23  and  C_24
REMARK    7  A    between atoms: C_25  and  O_26
REMARK    8  A    between atoms: O_26  and  C_27
REMARK                            x       y       z     vdW  Elec       q    Type
REMARK                         _______ _______ _______ _____ _____    ______ ____
ROOT
ATOM      1  O   UNL     1     -21.864 -50.742   3.570  0.00  0.00    +0.000 OA
ATOM      2  C   UNL     1     -21.130 -50.175   4.347  0.00  0.00    +0.000 C 
ATOM      3  C   UNL     1     -21.528 -49.739   5.763  0.00  0.00    +0.000 C 
ATOM     18  C   UNL     1     -20.253 -49.092   6.353  0.00  0.00    +0.000 C 
ATOM     19  C   UNL     1     -19.310 -49.208   5.194  0.00  0.00    +0.000 A 
ATOM     20  C   UNL     1     -19.843 -49.809   4.133  0.00  0.00    +0.000 A 
ATOM     21  C   UNL     1     -19.124 -49.992   3.020  0.00  0.00    +0.000 A 
ATOM     22  C   UNL     1     -17.842 -49.568   2.934  0.00  0.00    +0.000 A 
ATOM     25  C   UNL     1     -17.282 -48.974   4.025  0.00  0.00    +0.000 A 
ATOM     28  C   UNL     1     -18.042 -48.794   5.128  0.00  0.00    +0.000 A 
ENDROOT
BRANCH  22  23
ATOM     23  O   UNL     1     -17.084 -49.764   1.802  0.00  0.00    +0.000 OA
ATOM     24  C   UNL     1     -16.365 -50.962   1.631  0.00  0.00    +0.000 C 
ENDBRANCH  22  23
BRANCH  25  26
ATOM     26  O   UNL     1     -16.000 -48.471   4.105  0.00  0.00    +0.000 OA
ATOM     27  C   UNL     1     -15.766 -47.083   4.065  0.00  0.00    +0.000 C 
ENDBRANCH  25  26
BRANCH   3   4
ATOM      4  C   UNL     1     -22.099 -50.901   6.595  0.00  0.00    +0.000 C 
BRANCH   4   5
ATOM      5  C   UNL     1     -23.277 -50.529   7.518  0.00  0.00    +0.000 C 
ATOM      6  C   UNL     1     -23.324 -51.469   8.734  0.00  0.00    +0.000 C 
ATOM      7  C   UNL     1     -24.476 -51.104   9.683  0.00  0.00    +0.000 C 
ATOM      8  N   UNL     1     -24.380 -49.726  10.144  0.00  0.00    +0.000 NA
ATOM     16  C   UNL     1     -24.383 -48.805   9.016  0.00  0.00    +0.000 C 
ATOM     17  C   UNL     1     -23.232 -49.085   8.037  0.00  0.00    +0.000 C 
BRANCH   8   9
ATOM      9  C   UNL     1     -25.449 -49.421  11.090  0.00  0.00    +0.000 C 
BRANCH   9  10
ATOM     10  C   UNL     1     -24.885 -49.056  12.449  0.00  0.00    +0.000 A 
ATOM     11  C   UNL     1     -23.755 -48.333  12.542  0.00  0.00    +0.000 A 
ATOM     12  C   UNL     1     -23.245 -47.999  13.738  0.00  0.00    +0.000 A 
ATOM     13  C   UNL     1     -23.863 -48.389  14.862  0.00  0.00    +0.000 A 
ATOM     14  C   UNL     1     -24.991 -49.112  14.784  0.00  0.00    +0.000 A 
ATOM     15  C   UNL     1     -25.495 -49.442  13.584  0.00  0.00    +0.000 A 
ENDBRANCH   9  10
ENDBRANCH   8   9
ENDBRANCH   4   5
ENDBRANCH   3   4
TORSDOF 6
ENDMDL
MODEL 16
REMARK VINA RESULT:      -4.9     38.203     41.356
REMARK  Name = Fragment
REMARK  8 active torsions:
REMARK  status: ('A' for Active; 'I' for Inactive)
REMARK    1  A    between atoms: C_3  and  C_4
REMARK    2  A    between atoms: C_4  and  C_5
REMARK    3  A    between atoms: N_8  and  C_9
REMARK    4  A    between atoms: C_9  and  C_10
REMARK    5  A    between atoms: C_22  and  O_23
REMARK    6  A    between atoms: O_23  and  C_24
REMARK    7  A    between atoms: C_25  and  O_26
REMARK    8  A    between atoms: O_26  and  C_27
REMARK                            x       y       z     vdW  Elec       q    Type
REMARK                         _______ _______ _______ _____ _____    ______ ____
ROOT
ATOM      1  O   UNL     1      21.389 -40.098  16.453  0.00  0.00    +0.000 OA
ATOM      2  C   UNL     1      20.640 -40.862  17.018  0.00  0.00    +0.000 C 
ATOM      3  C   UNL     1      19.545 -41.682  16.323  0.00  0.00    +0.000 C 
ATOM     18  C   UNL     1      18.891 -42.511  17.454  0.00  0.00    +0.000 C 
ATOM     19  C   UNL     1      19.666 -42.033  18.644  0.00  0.00    +0.000 A 
ATOM     20  C   UNL     1      20.605 -41.140  18.344  0.00  0.00    +0.000 A 
ATOM     21  C   UNL     1      21.385 -40.622  19.299  0.00  0.00    +0.000 A 
ATOM     22  C   UNL     1      21.240 -40.980  20.595  0.00  0.00    +0.000 A 
ATOM     25  C   UNL     1      20.297 -41.913  20.907  0.00  0.00    +0.000 A 
ATOM     28  C   UNL     1      19.518 -42.405  19.918  0.00  0.00    +0.000 A 
ENDROOT
BRANCH  22  23
ATOM     23  O   UNL     1      22.045 -40.469  21.587  0.00  0.00    +0.000 OA
ATOM     24  C   UNL     1      22.120 -39.078  21.791  0.00  0.00    +0.000 C 
ENDBRANCH  22  23
BRANCH  25  26
ATOM     26  O   UNL     1      20.005 -42.379  22.172  0.00  0.00    +0.000 OA
ATOM     27  C   UNL     1      20.583 -43.570  22.653  0.00  0.00    +0.000 C 
ENDBRANCH  25  26
BRANCH   3   4
ATOM      4  C   UNL     1      20.093 -42.518  15.153  0.00  0.00    +0.000 C 
BRANCH   4   5
ATOM      5  C   UNL     1      19.526 -42.155  13.766  0.00  0.00    +0.000 C 
ATOM      6  C   UNL     1      18.349 -43.079  13.408  0.00  0.00    +0.000 C 
ATOM      7  C   UNL     1      17.750 -42.722  12.039  0.00  0.00    +0.000 C 
ATOM      8  N   UNL     1      17.306 -41.336  11.989  0.00  0.00    +0.000 NA
ATOM     16  C   UNL     1      18.411 -40.431  12.274  0.00  0.00    +0.000 C 
ATOM     17  C   UNL     1      19.041 -40.704  13.650  0.00  0.00    +0.000 C 
BRANCH   8   9
ATOM      9  C   UNL     1      16.687 -41.037  10.701  0.00  0.00    +0.000 C 
BRANCH   9  10
ATOM     10  C   UNL     1      15.480 -40.135  10.874  0.00  0.00    +0.000 A 
ATOM     11  C   UNL     1      15.563 -38.826  10.576  0.00  0.00    +0.000 A 
ATOM     12  C   UNL     1      14.503 -38.017  10.721  0.00  0.00    +0.000 A 
ATOM     13  C   UNL     1      13.340 -38.509  11.172  0.00  0.00    +0.000 A 
ATOM     14  C   UNL     1      13.244 -39.812  11.476  0.00  0.00    +0.000 A 
ATOM     15  C   UNL     1      14.308 -40.617  11.327  0.00  0.00    +0.000 A 
ENDBRANCH   9  10
ENDBRANCH   8   9
ENDBRANCH   4   5
ENDBRANCH   3   4
TORSDOF 6
ENDMDL
MODEL 17
REMARK VINA RESULT:      -4.9     37.500     39.791
REMARK  Name = Fragment
REMARK  8 active torsions:
REMARK  status: ('A' for Active; 'I' for Inactive)
REMARK    1  A    between atoms: C_3  and  C_4
REMARK    2  A    between atoms: C_4  and  C_5
REMARK    3  A    between atoms: N_8  and  C_9
REMARK    4  A    between atoms: C_9  and  C_10
REMARK    5  A    between atoms: C_22  and  O_23
REMARK    6  A    between atoms: O_23  and  C_24
REMARK    7  A    between atoms: C_25  and  O_26
REMARK    8  A    between atoms: O_26  and  C_27
REMARK                            x       y       z     vdW  Elec       q    Type
REMARK                         _______ _______ _______ _____ _____    ______ ____
ROOT
ATOM      1  O   UNL     1      12.308 -58.185  48.639  0.00  0.00    +0.000 OA
ATOM      2  C   UNL     1      12.282 -58.521  47.477  0.00  0.00    +0.000 C 
ATOM      3  C   UNL     1      12.277 -59.977  46.991  0.00  0.00    +0.000 C 
ATOM     18  C   UNL     1      12.212 -59.880  45.448  0.00  0.00    +0.000 C 
ATOM     19  C   UNL     1      12.226 -58.395  45.254  0.00  0.00    +0.000 A 
ATOM     20  C   UNL     1      12.260 -57.709  46.393  0.00  0.00    +0.000 A 
ATOM     21  C   UNL     1      12.272 -56.371  46.384  0.00  0.00    +0.000 A 
ATOM     22  C   UNL     1      12.257 -55.676  45.224  0.00  0.00    +0.000 A 
ATOM     25  C   UNL     1      12.196 -56.372  44.053  0.00  0.00    +0.000 A 
ATOM     28  C   UNL     1      12.199 -57.722  44.100  0.00  0.00    +0.000 A 
ENDROOT
BRANCH  22  23
ATOM     23  O   UNL     1      12.251 -54.301  45.198  0.00  0.00    +0.000 OA
ATOM     24  C   UNL     1      11.794 -53.574  46.315  0.00  0.00    +0.000 C 
ENDBRANCH  22  23
BRANCH  25  26
ATOM     26  O   UNL     1      12.189 -55.826  42.786  0.00  0.00    +0.000 OA
ATOM     27  C   UNL     1      12.500 -56.613  41.661  0.00  0.00    +0.000 C 
ENDBRANCH  25  26
BRANCH   3   4
ATOM      4  C   UNL     1      11.146 -60.803  47.628  0.00  0.00    +0.000 C 
BRANCH   4   5
ATOM      5  C   UNL     1       9.725 -60.240  47.419  0.00  0.00    +0.000 C 
ATOM      6  C   UNL     1       8.784 -61.337  46.894  0.00  0.00    +0.000 C 
ATOM      7  C   UNL     1       7.355 -60.807  46.700  0.00  0.00    +0.000 C 
ATOM      8  N   UNL     1       6.811 -60.257  47.934  0.00  0.00    +0.000 NA
ATOM     16  C   UNL     1       7.655 -59.178  48.432  0.00  0.00    +0.000 C 
ATOM     17  C   UNL     1       9.097 -59.644  48.686  0.00  0.00    +0.000 C 
BRANCH   8   9
ATOM      9  C   UNL     1       5.434 -59.815  47.740  0.00  0.00    +0.000 C 
BRANCH   9  10
ATOM     10  C   UNL     1       4.748 -59.574  49.071  0.00  0.00    +0.000 A 
ATOM     11  C   UNL     1       4.172 -58.387  49.332  0.00  0.00    +0.000 A 
ATOM     12  C   UNL     1       3.559 -58.160  50.504  0.00  0.00    +0.000 A 
ATOM     13  C   UNL     1       3.517 -59.123  51.436  0.00  0.00    +0.000 A 
ATOM     14  C   UNL     1       4.089 -60.311  51.190  0.00  0.00    +0.000 A 
ATOM     15  C   UNL     1       4.700 -60.532  50.015  0.00  0.00    +0.000 A 
ENDBRANCH   9  10
ENDBRANCH   8   9
ENDBRANCH   4   5
ENDBRANCH   3   4
TORSDOF 6
ENDMDL
MODEL 18
REMARK VINA RESULT:      -4.9     18.573     21.251
REMARK  Name = Fragment
REMARK  8 active torsions:
REMARK  status: ('A' for Active; 'I' for Inactive)
REMARK    1  A    between atoms: C_3  and  C_4
REMARK    2  A    between atoms: C_4  and  C_5
REMARK    3  A    between atoms: N_8  and  C_9
REMARK    4  A    between atoms: C_9  and  C_10
REMARK    5  A    between atoms: C_22  and  O_23
REMARK    6  A    between atoms: O_23  and  C_24
REMARK    7  A    between atoms: C_25  and  O_26
REMARK    8  A    between atoms: O_26  and  C_27
REMARK                            x       y       z     vdW  Elec       q    Type
REMARK                         _______ _______ _______ _____ _____    ______ ____
ROOT
ATOM      1  O   UNL     1     -22.320 -48.158   7.574  0.00  0.00    +0.000 OA
ATOM      2  C   UNL     1     -21.743 -48.957   6.872  0.00  0.00    +0.000 C 
ATOM      3  C   UNL     1     -22.019 -50.467   6.861  0.00  0.00    +0.000 C 
ATOM     18  C   UNL     1     -21.058 -51.039   5.792  0.00  0.00    +0.000 C 
ATOM     19  C   UNL     1     -20.338 -49.797   5.361  0.00  0.00    +0.000 A 
ATOM     20  C   UNL     1     -20.756 -48.697   5.981  0.00  0.00    +0.000 A 
ATOM     21  C   UNL     1     -20.213 -47.507   5.700  0.00  0.00    +0.000 A 
ATOM     22  C   UNL     1     -19.221 -47.385   4.789  0.00  0.00    +0.000 A 
ATOM     25  C   UNL     1     -18.804 -48.504   4.132  0.00  0.00    +0.000 A 
ATOM     28  C   UNL     1     -19.366 -49.691   4.451  0.00  0.00    +0.000 A 
ENDROOT
BRANCH  22  23
ATOM     23  O   UNL     1     -18.664 -46.166   4.477  0.00  0.00    +0.000 OA
ATOM     24  C   UNL     1     -19.106 -45.456   3.344  0.00  0.00    +0.000 C 
ENDBRANCH  22  23
BRANCH  25  26
ATOM     26  O   UNL     1     -17.798 -48.563   3.190  0.00  0.00    +0.000 OA
ATOM     27  C   UNL     1     -16.806 -49.560   3.255  0.00  0.00    +0.000 C 
ENDBRANCH  25  26
BRANCH   3   4
ATOM      4  C   UNL     1     -23.504 -50.790   6.623  0.00  0.00    +0.000 C 
BRANCH   4   5
ATOM      5  C   UNL     1     -24.334 -51.038   7.898  0.00  0.00    +0.000 C 
ATOM      6  C   UNL     1     -23.435 -51.566   9.030  0.00  0.00    +0.000 C 
ATOM      7  C   UNL     1     -24.235 -51.800  10.320  0.00  0.00    +0.000 C 
ATOM      8  N   UNL     1     -24.907 -50.586  10.766  0.00  0.00    +0.000 NA
ATOM     16  C   UNL     1     -25.806 -50.088   9.734  0.00  0.00    +0.000 C 
ATOM     17  C   UNL     1     -25.068 -49.795   8.418  0.00  0.00    +0.000 C 
BRANCH   8   9
ATOM      9  C   UNL     1     -25.610 -50.817  12.025  0.00  0.00    +0.000 C 
BRANCH   9  10
ATOM     10  C   UNL     1     -25.046 -49.946  13.130  0.00  0.00    +0.000 A 
ATOM     11  C   UNL     1     -24.082 -49.047  12.860  0.00  0.00    +0.000 A 
ATOM     12  C   UNL     1     -23.576 -48.267  13.828  0.00  0.00    +0.000 A 
ATOM     13  C   UNL     1     -24.027 -48.379  15.085  0.00  0.00    +0.000 A 
ATOM     14  C   UNL     1     -24.987 -49.273  15.368  0.00  0.00    +0.000 A 
ATOM     15  C   UNL     1     -25.490 -50.050  14.396  0.00  0.00    +0.000 A 
ENDBRANCH   9  10
ENDBRANCH   8   9
ENDBRANCH   4   5
ENDBRANCH   3   4
TORSDOF 6
ENDMDL
