MODEL 1
REMARK VINA RESULT:     -11.5      0.000      0.000
REMARK  Name = Fragment
REMARK  8 active torsions:
REMARK  status: ('A' for Active; 'I' for Inactive)
REMARK    1  A    between atoms: C_3  and  C_4
REMARK    2  A    between atoms: C_4  and  C_5
REMARK    3  A    between atoms: N_8  and  C_9
REMARK    4  A    between atoms: C_9  and  C_10
REMARK    5  A    between atoms: C_22  and  O_23
REMARK    6  A    between atoms: O_23  and  C_24
REMARK    7  A    between atoms: C_25  and  O_26
REMARK    8  A    between atoms: O_26  and  C_27
REMARK                            x       y       z     vdW  Elec       q    Type
REMARK                         _______ _______ _______ _____ _____    ______ ____
ROOT
ATOM      1  O   UNL     1     -14.491 -43.937  23.798  0.00  0.00    +0.000 OA
ATOM      2  C   UNL     1     -15.179 -43.604  24.736  0.00  0.00    +0.000 C 
ATOM      3  C   UNL     1     -14.792 -43.791  26.210  0.00  0.00    +0.000 C 
ATOM     18  C   UNL     1     -15.972 -43.189  27.009  0.00  0.00    +0.000 C 
ATOM     19  C   UNL     1     -16.888 -42.774  25.898  0.00  0.00    +0.000 A 
ATOM     20  C   UNL     1     -16.401 -43.021  24.686  0.00  0.00    +0.000 A 
ATOM     21  C   UNL     1     -17.100 -42.703  23.591  0.00  0.00    +0.000 A 
ATOM     22  C   UNL     1     -18.321 -42.129  23.680  0.00  0.00    +0.000 A 
ATOM     25  C   UNL     1     -18.816 -41.849  24.919  0.00  0.00    +0.000 A 
ATOM     28  C   UNL     1     -18.088 -42.197  26.003  0.00  0.00    +0.000 A 
ENDROOT
BRANCH  22  23
ATOM     23  O   UNL     1     -19.046 -41.779  22.564  0.00  0.00    +0.000 OA
ATOM     24  C   UNL     1     -18.785 -40.563  21.904  0.00  0.00    +0.000 C 
ENDBRANCH  22  23
BRANCH  25  26
ATOM     26  O   UNL     1     -20.045 -41.283  25.192  0.00  0.00    +0.000 OA
ATOM     27  C   UNL     1     -20.587 -41.328  26.490  0.00  0.00    +0.000 C 
ENDBRANCH  25  26
BRANCH   3   4
ATOM      4  C   UNL     1     -13.419 -43.178  26.538  0.00  0.00    +0.000 C 
BRANCH   4   5
ATOM      5  C   UNL     1     -12.473 -44.087  27.349  0.00  0.00    +0.000 C 
ATOM      6  C   UNL     1     -11.414 -43.243  28.079  0.00  0.00    +0.000 C 
ATOM      7  C   UNL     1     -10.473 -44.124  28.915  0.00  0.00    +0.000 C 
ATOM      8  N   UNL     1     -11.204 -44.924  29.888  0.00  0.00    +0.000 NA
ATOM     16  C   UNL     1     -12.183 -45.774  29.222  0.00  0.00    +0.000 C 
ATOM     17  C   UNL     1     -13.187 -44.957  28.393  0.00  0.00    +0.000 C 
BRANCH   8   9
ATOM      9  C   UNL     1     -10.285 -45.706  30.709  0.00  0.00    +0.000 C 
BRANCH   9  10
ATOM     10  C   UNL     1      -9.442 -44.805  31.591  0.00  0.00    +0.000 A 
ATOM     11  C   UNL     1     -10.029 -43.893  32.386  0.00  0.00    +0.000 A 
ATOM     12  C   UNL     1      -9.296 -43.090  33.173  0.00  0.00    +0.000 A 
ATOM     13  C   UNL     1      -7.959 -43.189  33.173  0.00  0.00    +0.000 A 
ATOM     14  C   UNL     1      -7.361 -44.094  32.383  0.00  0.00    +0.000 A 
ATOM     15  C   UNL     1      -8.099 -44.894  31.599  0.00  0.00    +0.000 A 
ENDBRANCH   9  10
ENDBRANCH   8   9
ENDBRANCH   4   5
ENDBRANCH   3   4
TORSDOF 6
ENDMDL
MODEL 2
REMARK VINA RESULT:     -10.2      1.947      3.031
REMARK  Name = Fragment
REMARK  8 active torsions:
REMARK  status: ('A' for Active; 'I' for Inactive)
REMARK    1  A    between atoms: C_3  and  C_4
REMARK    2  A    between atoms: C_4  and  C_5
REMARK    3  A    between atoms: N_8  and  C_9
REMARK    4  A    between atoms: C_9  and  C_10
REMARK    5  A    between atoms: C_22  and  O_23
REMARK    6  A    between atoms: O_23  and  C_24
REMARK    7  A    between atoms: C_25  and  O_26
REMARK    8  A    between atoms: O_26  and  C_27
REMARK                            x       y       z     vdW  Elec       q    Type
REMARK                         _______ _______ _______ _____ _____    ______ ____
ROOT
ATOM      1  O   UNL     1     -15.378 -41.314  22.322  0.00  0.00    +0.000 OA
ATOM      2  C   UNL     1     -16.313 -41.757  22.949  0.00  0.00    +0.000 C 
ATOM      3  C   UNL     1     -16.203 -42.844  24.026  0.00  0.00    +0.000 C 
ATOM     18  C   UNL     1     -17.648 -43.039  24.543  0.00  0.00    +0.000 C 
ATOM     19  C   UNL     1     -18.395 -42.074  23.674  0.00  0.00    +0.000 A 
ATOM     20  C   UNL     1     -17.616 -41.403  22.831  0.00  0.00    +0.000 A 
ATOM     21  C   UNL     1     -18.136 -40.499  21.992  0.00  0.00    +0.000 A 
ATOM     22  C   UNL     1     -19.464 -40.245  21.969  0.00  0.00    +0.000 A 
ATOM     25  C   UNL     1     -20.266 -40.910  22.847  0.00  0.00    +0.000 A 
ATOM     28  C   UNL     1     -19.708 -41.826  23.671  0.00  0.00    +0.000 A 
ENDROOT
BRANCH  22  23
ATOM     23  O   UNL     1     -20.012 -39.307  21.124  0.00  0.00    +0.000 OA
ATOM     24  C   UNL     1     -20.110 -39.571  19.744  0.00  0.00    +0.000 C 
ENDBRANCH  22  23
BRANCH  25  26
ATOM     26  O   UNL     1     -21.636 -40.786  22.948  0.00  0.00    +0.000 OA
ATOM     27  C   UNL     1     -22.240 -40.426  24.168  0.00  0.00    +0.000 C 
ENDBRANCH  25  26
BRANCH   3   4
ATOM      4  C   UNL     1     -15.178 -42.486  25.117  0.00  0.00    +0.000 C 
BRANCH   4   5
ATOM      5  C   UNL     1     -15.119 -43.465  26.307  0.00  0.00    +0.000 C 
ATOM      6  C   UNL     1     -13.677 -43.954  26.529  0.00  0.00    +0.000 C 
ATOM      7  C   UNL     1     -13.587 -44.914  27.725  0.00  0.00    +0.000 C 
ATOM      8  N   UNL     1     -14.080 -44.298  28.950  0.00  0.00    +0.000 NA
ATOM     16  C   UNL     1     -15.463 -43.869  28.788  0.00  0.00    +0.000 C 
ATOM     17  C   UNL     1     -15.627 -42.874  27.628  0.00  0.00    +0.000 C 
BRANCH   8   9
ATOM      9  C   UNL     1     -13.929 -45.206  30.082  0.00  0.00    +0.000 C 
BRANCH   9  10
ATOM     10  C   UNL     1     -12.558 -45.062  30.715  0.00  0.00    +0.000 A 
ATOM     11  C   UNL     1     -12.186 -43.895  31.270  0.00  0.00    +0.000 A 
ATOM     12  C   UNL     1     -10.977 -43.754  31.836  0.00  0.00    +0.000 A 
ATOM     13  C   UNL     1     -10.120 -44.784  31.851  0.00  0.00    +0.000 A 
ATOM     14  C   UNL     1     -10.477 -45.954  31.299  0.00  0.00    +0.000 A 
ATOM     15  C   UNL     1     -11.688 -46.089  30.735  0.00  0.00    +0.000 A 
ENDBRANCH   9  10
ENDBRANCH   8   9
ENDBRANCH   4   5
ENDBRANCH   3   4
TORSDOF 6
ENDMDL
MODEL 3
REMARK VINA RESULT:      -9.3      3.808     11.318
REMARK  Name = Fragment
REMARK  8 active torsions:
REMARK  status: ('A' for Active; 'I' for Inactive)
REMARK    1  A    between atoms: C_3  and  C_4
REMARK    2  A    between atoms: C_4  and  C_5
REMARK    3  A    between atoms: N_8  and  C_9
REMARK    4  A    between atoms: C_9  and  C_10
REMARK    5  A    between atoms: C_22  and  O_23
REMARK    6  A    between atoms: O_23  and  C_24
REMARK    7  A    between atoms: C_25  and  O_26
REMARK    8  A    between atoms: O_26  and  C_27
REMARK                            x       y       z     vdW  Elec       q    Type
REMARK                         _______ _______ _______ _____ _____    ______ ____
ROOT
ATOM      1  O   UNL     1     -14.287 -44.244  23.864  0.00  0.00    +0.000 OA
ATOM      2  C   UNL     1     -14.748 -43.872  24.919  0.00  0.00    +0.000 C 
ATOM      3  C   UNL     1     -15.825 -42.789  25.066  0.00  0.00    +0.000 C 
ATOM     18  C   UNL     1     -16.093 -42.699  26.587  0.00  0.00    +0.000 C 
ATOM     19  C   UNL     1     -15.117 -43.708  27.110  0.00  0.00    +0.000 A 
ATOM     20  C   UNL     1     -14.417 -44.316  26.156  0.00  0.00    +0.000 A 
ATOM     21  C   UNL     1     -13.508 -45.247  26.464  0.00  0.00    +0.000 A 
ATOM     22  C   UNL     1     -13.265 -45.594  27.748  0.00  0.00    +0.000 A 
ATOM     25  C   UNL     1     -13.996 -44.994  28.730  0.00  0.00    +0.000 A 
ATOM     28  C   UNL     1     -14.896 -44.048  28.383  0.00  0.00    +0.000 A 
ENDROOT
BRANCH  22  23
ATOM     23  O   UNL     1     -12.345 -46.562  28.081  0.00  0.00    +0.000 OA
ATOM     24  C   UNL     1     -11.001 -46.210  28.310  0.00  0.00    +0.000 C 
ENDBRANCH  22  23
BRANCH  25  26
ATOM     26  O   UNL     1     -13.868 -45.215  30.086  0.00  0.00    +0.000 OA
ATOM     27  C   UNL     1     -13.061 -44.378  30.881  0.00  0.00    +0.000 C 
ENDBRANCH  25  26
BRANCH   3   4
ATOM      4  C   UNL     1     -17.072 -43.082  24.213  0.00  0.00    +0.000 C 
BRANCH   4   5
ATOM      5  C   UNL     1     -18.019 -41.883  24.004  0.00  0.00    +0.000 C 
ATOM      6  C   UNL     1     -18.064 -41.487  22.519  0.00  0.00    +0.000 C 
ATOM      7  C   UNL     1     -19.021 -40.308  22.280  0.00  0.00    +0.000 C 
ATOM      8  N   UNL     1     -20.371 -40.607  22.739  0.00  0.00    +0.000 NA
ATOM     16  C   UNL     1     -20.369 -40.938  24.158  0.00  0.00    +0.000 C 
ATOM     17  C   UNL     1     -19.459 -42.137  24.471  0.00  0.00    +0.000 C 
BRANCH   8   9
ATOM      9  C   UNL     1     -21.274 -39.498  22.448  0.00  0.00    +0.000 C 
BRANCH   9  10
ATOM     10  C   UNL     1     -21.702 -39.514  20.993  0.00  0.00    +0.000 A 
ATOM     11  C   UNL     1     -21.460 -38.452  20.204  0.00  0.00    +0.000 A 
ATOM     12  C   UNL     1     -21.831 -38.453  18.914  0.00  0.00    +0.000 A 
ATOM     13  C   UNL     1     -22.454 -39.521  18.396  0.00  0.00    +0.000 A 
ATOM     14  C   UNL     1     -22.703 -40.586  19.173  0.00  0.00    +0.000 A 
ATOM     15  C   UNL     1     -22.329 -40.579  20.462  0.00  0.00    +0.000 A 
ENDBRANCH   9  10
ENDBRANCH   8   9
ENDBRANCH   4   5
ENDBRANCH   3   4
TORSDOF 6
ENDMDL
MODEL 4
REMARK VINA RESULT:      -9.2      1.660      2.865
REMARK  Name = Fragment
REMARK  8 active torsions:
REMARK  status: ('A' for Active; 'I' for Inactive)
REMARK    1  A    between atoms: C_3  and  C_4
REMARK    2  A    between atoms: C_4  and  C_5
REMARK    3  A    between atoms: N_8  and  C_9
REMARK    4  A    between atoms: C_9  and  C_10
REMARK    5  A    between atoms: C_22  and  O_23
REMARK    6  A    between atoms: O_23  and  C_24
REMARK    7  A    between atoms: C_25  and  O_26
REMARK    8  A    between atoms: O_26  and  C_27
REMARK                            x       y       z     vdW  Elec       q    Type
REMARK                         _______ _______ _______ _____ _____    ______ ____
ROOT
ATOM      1  O   UNL     1     -17.611 -42.501  23.787  0.00  0.00    +0.000 OA
ATOM      2  C   UNL     1     -18.077 -42.349  24.893  0.00  0.00    +0.000 C 
ATOM      3  C   UNL     1     -17.389 -42.782  26.195  0.00  0.00    +0.000 C 
ATOM     18  C   UNL     1     -18.360 -42.349  27.319  0.00  0.00    +0.000 C 
ATOM     19  C   UNL     1     -19.483 -41.764  26.518  0.00  0.00    +0.000 A 
ATOM     20  C   UNL     1     -19.270 -41.789  25.206  0.00  0.00    +0.000 A 
ATOM     21  C   UNL     1     -20.180 -41.298  24.357  0.00  0.00    +0.000 A 
ATOM     22  C   UNL     1     -21.343 -40.770  24.802  0.00  0.00    +0.000 A 
ATOM     25  C   UNL     1     -21.558 -40.719  26.147  0.00  0.00    +0.000 A 
ATOM     28  C   UNL     1     -20.623 -41.236  26.974  0.00  0.00    +0.000 A 
ENDROOT
BRANCH  22  23
ATOM     23  O   UNL     1     -22.282 -40.246  23.943  0.00  0.00    +0.000 OA
ATOM     24  C   UNL     1     -22.295 -40.632  22.589  0.00  0.00    +0.000 C 
ENDBRANCH  22  23
BRANCH  25  26
ATOM     26  O   UNL     1     -22.689 -40.231  26.769  0.00  0.00    +0.000 OA
ATOM     27  C   UNL     1     -23.569 -41.096  27.447  0.00  0.00    +0.000 C 
ENDBRANCH  25  26
BRANCH   3   4
ATOM      4  C   UNL     1     -15.967 -42.210  26.324  0.00  0.00    +0.000 C 
BRANCH   4   5
ATOM      5  C   UNL     1     -14.864 -43.252  26.603  0.00  0.00    +0.000 C 
ATOM      6  C   UNL     1     -13.476 -42.593  26.550  0.00  0.00    +0.000 C 
ATOM      7  C   UNL     1     -12.361 -43.606  26.848  0.00  0.00    +0.000 C 
ATOM      8  N   UNL     1     -12.542 -44.242  28.146  0.00  0.00    +0.000 NA
ATOM     16  C   UNL     1     -13.830 -44.920  28.211  0.00  0.00    +0.000 C 
ATOM     17  C   UNL     1     -15.002 -43.959  27.958  0.00  0.00    +0.000 C 
BRANCH   8   9
ATOM      9  C   UNL     1     -11.440 -45.155  28.433  0.00  0.00    +0.000 C 
BRANCH   9  10
ATOM     10  C   UNL     1     -10.694 -44.730  29.683  0.00  0.00    +0.000 A 
ATOM     11  C   UNL     1     -10.996 -45.279  30.873  0.00  0.00    +0.000 A 
ATOM     12  C   UNL     1     -10.342 -44.915  31.988  0.00  0.00    +0.000 A 
ATOM     13  C   UNL     1      -9.374 -43.990  31.925  0.00  0.00    +0.000 A 
ATOM     14  C   UNL     1      -9.063 -43.433  30.744  0.00  0.00    +0.000 A 
ATOM     15  C   UNL     1      -9.720 -43.802  29.634  0.00  0.00    +0.000 A 
ENDBRANCH   9  10
ENDBRANCH   8   9
ENDBRANCH   4   5
ENDBRANCH   3   4
TORSDOF 6
ENDMDL
MODEL 5
REMARK VINA RESULT:      -9.0     22.982     24.995
REMARK  Name = Fragment
REMARK  8 active torsions:
REMARK  status: ('A' for Active; 'I' for Inactive)
REMARK    1  A    between atoms: C_3  and  C_4
REMARK    2  A    between atoms: C_4  and  C_5
REMARK    3  A    between atoms: N_8  and  C_9
REMARK    4  A    between atoms: C_9  and  C_10
REMARK    5  A    between atoms: C_22  and  O_23
REMARK    6  A    between atoms: O_23  and  C_24
REMARK    7  A    between atoms: C_25  and  O_26
REMARK    8  A    between atoms: O_26  and  C_27
REMARK                            x       y       z     vdW  Elec       q    Type
REMARK                         _______ _______ _______ _____ _____    ______ ____
ROOT
ATOM      1  O   UNL     1       5.293 -54.461  12.079  0.00  0.00    +0.000 OA
ATOM      2  C   UNL     1       4.741 -55.534  12.163  0.00  0.00    +0.000 C 
ATOM      3  C   UNL     1       5.445 -56.851  12.513  0.00  0.00    +0.000 C 
ATOM     18  C   UNL     1       4.320 -57.913  12.522  0.00  0.00    +0.000 C 
ATOM     19  C   UNL     1       3.136 -57.078  12.142  0.00  0.00    +0.000 A 
ATOM     20  C   UNL     1       3.426 -55.792  11.964  0.00  0.00    +0.000 A 
ATOM     21  C   UNL     1       2.472 -54.918  11.626  0.00  0.00    +0.000 A 
ATOM     22  C   UNL     1       1.190 -55.310  11.448  0.00  0.00    +0.000 A 
ATOM     25  C   UNL     1       0.880 -56.621  11.653  0.00  0.00    +0.000 A 
ATOM     28  C   UNL     1       1.872 -57.479  11.980  0.00  0.00    +0.000 A 
ENDROOT
BRANCH  22  23
ATOM     23  O   UNL     1       0.194 -54.420  11.117  0.00  0.00    +0.000 OA
ATOM     24  C   UNL     1      -0.163 -54.228   9.768  0.00  0.00    +0.000 C 
ENDBRANCH  22  23
BRANCH  25  26
ATOM     26  O   UNL     1      -0.366 -57.193  11.501  0.00  0.00    +0.000 OA
ATOM     27  C   UNL     1      -0.542 -58.584  11.627  0.00  0.00    +0.000 C 
ENDBRANCH  25  26
BRANCH   3   4
ATOM      4  C   UNL     1       6.245 -56.758  13.824  0.00  0.00    +0.000 C 
BRANCH   4   5
ATOM      5  C   UNL     1       5.401 -56.829  15.113  0.00  0.00    +0.000 C 
ATOM      6  C   UNL     1       6.286 -57.202  16.315  0.00  0.00    +0.000 C 
ATOM      7  C   UNL     1       5.472 -57.256  17.617  0.00  0.00    +0.000 C 
ATOM      8  N   UNL     1       4.802 -55.991  17.887  0.00  0.00    +0.000 NA
ATOM     16  C   UNL     1       3.915 -55.634  16.788  0.00  0.00    +0.000 C 
ATOM     17  C   UNL     1       4.668 -55.524  15.452  0.00  0.00    +0.000 C 
BRANCH   8   9
ATOM      9  C   UNL     1       4.085 -56.047  19.158  0.00  0.00    +0.000 C 
BRANCH   9  10
ATOM     10  C   UNL     1       3.542 -54.683  19.536  0.00  0.00    +0.000 A 
ATOM     11  C   UNL     1       2.381 -54.577  20.207  0.00  0.00    +0.000 A 
ATOM     12  C   UNL     1       1.889 -53.377  20.550  0.00  0.00    +0.000 A 
ATOM     13  C   UNL     1       2.556 -52.261  20.223  0.00  0.00    +0.000 A 
ATOM     14  C   UNL     1       3.714 -52.352  19.553  0.00  0.00    +0.000 A 
ATOM     15  C   UNL     1       4.201 -53.555  19.212  0.00  0.00    +0.000 A 
ENDBRANCH   9  10
ENDBRANCH   8   9
ENDBRANCH   4   5
ENDBRANCH   3   4
TORSDOF 6
ENDMDL
MODEL 6
REMARK VINA RESULT:      -8.7      4.920     12.778
REMARK  Name = Fragment
REMARK  8 active torsions:
REMARK  status: ('A' for Active; 'I' for Inactive)
REMARK    1  A    between atoms: C_3  and  C_4
REMARK    2  A    between atoms: C_4  and  C_5
REMARK    3  A    between atoms: N_8  and  C_9
REMARK    4  A    between atoms: C_9  and  C_10
REMARK    5  A    between atoms: C_22  and  O_23
REMARK    6  A    between atoms: O_23  and  C_24
REMARK    7  A    between atoms: C_25  and  O_26
REMARK    8  A    between atoms: O_26  and  C_27
REMARK                            x       y       z     vdW  Elec       q    Type
REMARK                         _______ _______ _______ _____ _____    ______ ____
ROOT
ATOM      1  O   UNL     1     -19.667 -41.889  24.986  0.00  0.00    +0.000 OA
ATOM      2  C   UNL     1     -18.560 -42.156  24.577  0.00  0.00    +0.000 C 
ATOM      3  C   UNL     1     -18.173 -42.226  23.093  0.00  0.00    +0.000 C 
ATOM     18  C   UNL     1     -16.664 -42.569  23.092  0.00  0.00    +0.000 C 
ATOM     19  C   UNL     1     -16.396 -42.686  24.562  0.00  0.00    +0.000 A 
ATOM     20  C   UNL     1     -17.463 -42.446  25.318  0.00  0.00    +0.000 A 
ATOM     21  C   UNL     1     -17.382 -42.506  26.652  0.00  0.00    +0.000 A 
ATOM     22  C   UNL     1     -16.221 -42.819  27.272  0.00  0.00    +0.000 A 
ATOM     25  C   UNL     1     -15.117 -43.041  26.504  0.00  0.00    +0.000 A 
ATOM     28  C   UNL     1     -15.239 -42.985  25.159  0.00  0.00    +0.000 A 
ENDROOT
BRANCH  22  23
ATOM     23  O   UNL     1     -16.117 -42.868  28.643  0.00  0.00    +0.000 OA
ATOM     24  C   UNL     1     -17.272 -42.775  29.443  0.00  0.00    +0.000 C 
ENDBRANCH  22  23
BRANCH  25  26
ATOM     26  O   UNL     1     -13.864 -43.384  26.967  0.00  0.00    +0.000 OA
ATOM     27  C   UNL     1     -13.543 -44.725  27.253  0.00  0.00    +0.000 C 
ENDBRANCH  25  26
BRANCH   3   4
ATOM      4  C   UNL     1     -18.536 -40.940  22.331  0.00  0.00    +0.000 C 
BRANCH   4   5
ATOM      5  C   UNL     1     -19.894 -40.972  21.600  0.00  0.00    +0.000 C 
ATOM      6  C   UNL     1     -20.984 -40.314  22.463  0.00  0.00    +0.000 C 
ATOM      7  C   UNL     1     -22.343 -40.311  21.747  0.00  0.00    +0.000 C 
ATOM      8  N   UNL     1     -22.273 -39.633  20.459  0.00  0.00    +0.000 NA
ATOM     16  C   UNL     1     -21.283 -40.266  19.598  0.00  0.00    +0.000 C 
ATOM     17  C   UNL     1     -19.884 -40.273  20.234  0.00  0.00    +0.000 C 
BRANCH   8   9
ATOM      9  C   UNL     1     -23.588 -39.591  19.826  0.00  0.00    +0.000 C 
BRANCH   9  10
ATOM     10  C   UNL     1     -24.046 -38.160  19.621  0.00  0.00    +0.000 A 
ATOM     11  C   UNL     1     -25.351 -37.885  19.444  0.00  0.00    +0.000 A 
ATOM     12  C   UNL     1     -25.772 -36.623  19.264  0.00  0.00    +0.000 A 
ATOM     13  C   UNL     1     -24.888 -35.616  19.257  0.00  0.00    +0.000 A 
ATOM     14  C   UNL     1     -23.583 -35.877  19.431  0.00  0.00    +0.000 A 
ATOM     15  C   UNL     1     -23.168 -37.141  19.610  0.00  0.00    +0.000 A 
ENDBRANCH   9  10
ENDBRANCH   8   9
ENDBRANCH   4   5
ENDBRANCH   3   4
TORSDOF 6
ENDMDL
MODEL 7
REMARK VINA RESULT:      -8.5     22.828     24.552
REMARK  Name = Fragment
REMARK  8 active torsions:
REMARK  status: ('A' for Active; 'I' for Inactive)
REMARK    1  A    between atoms: C_3  and  C_4
REMARK    2  A    between atoms: C_4  and  C_5
REMARK    3  A    between atoms: N_8  and  C_9
REMARK    4  A    between atoms: C_9  and  C_10
REMARK    5  A    between atoms: C_22  and  O_23
REMARK    6  A    between atoms: O_23  and  C_24
REMARK    7  A    between atoms: C_25  and  O_26
REMARK    8  A    between atoms: O_26  and  C_27
REMARK                            x       y       z     vdW  Elec       q    Type
REMARK                         _______ _______ _______ _____ _____    ______ ____
ROOT
ATOM      1  O   UNL     1       0.623 -57.923  12.783  0.00  0.00    +0.000 OA
ATOM      2  C   UNL     1       0.951 -56.934  12.169  0.00  0.00    +0.000 C 
ATOM      3  C   UNL     1       2.030 -55.943  12.627  0.00  0.00    +0.000 C 
ATOM     18  C   UNL     1       2.098 -54.882  11.503  0.00  0.00    +0.000 C 
ATOM     19  C   UNL     1       1.031 -55.380  10.575  0.00  0.00    +0.000 A 
ATOM     20  C   UNL     1       0.447 -56.500  10.989  0.00  0.00    +0.000 A 
ATOM     21  C   UNL     1      -0.522 -57.072  10.265  0.00  0.00    +0.000 A 
ATOM     22  C   UNL     1      -0.942 -56.529   9.100  0.00  0.00    +0.000 A 
ATOM     25  C   UNL     1      -0.331 -55.394   8.657  0.00  0.00    +0.000 A 
ATOM     28  C   UNL     1       0.635 -54.837   9.421  0.00  0.00    +0.000 A 
ENDROOT
BRANCH  22  23
ATOM     23  O   UNL     1      -1.925 -57.114   8.335  0.00  0.00    +0.000 OA
ATOM     24  C   UNL     1      -1.727 -58.396   7.788  0.00  0.00    +0.000 C 
ENDBRANCH  22  23
BRANCH  25  26
ATOM     26  O   UNL     1      -0.643 -54.702   7.505  0.00  0.00    +0.000 OA
ATOM     27  C   UNL     1       0.002 -54.998   6.289  0.00  0.00    +0.000 C 
ENDBRANCH  25  26
BRANCH   3   4
ATOM      4  C   UNL     1       3.370 -56.634  12.933  0.00  0.00    +0.000 C 
BRANCH   4   5
ATOM      5  C   UNL     1       3.754 -56.687  14.426  0.00  0.00    +0.000 C 
ATOM      6  C   UNL     1       4.751 -55.565  14.764  0.00  0.00    +0.000 C 
ATOM      7  C   UNL     1       5.132 -55.581  16.252  0.00  0.00    +0.000 C 
ATOM      8  N   UNL     1       3.961 -55.460  17.110  0.00  0.00    +0.000 NA
ATOM     16  C   UNL     1       3.018 -56.539  16.850  0.00  0.00    +0.000 C 
ATOM     17  C   UNL     1       2.561 -56.565  15.383  0.00  0.00    +0.000 C 
BRANCH   8   9
ATOM      9  C   UNL     1       4.353 -55.417  18.516  0.00  0.00    +0.000 C 
BRANCH   9  10
ATOM     10  C   UNL     1       3.606 -54.323  19.255  0.00  0.00    +0.000 A 
ATOM     11  C   UNL     1       4.009 -53.043  19.158  0.00  0.00    +0.000 A 
ATOM     12  C   UNL     1       3.356 -52.064  19.804  0.00  0.00    +0.000 A 
ATOM     13  C   UNL     1       2.289 -52.355  20.561  0.00  0.00    +0.000 A 
ATOM     14  C   UNL     1       1.878 -53.628  20.667  0.00  0.00    +0.000 A 
ATOM     15  C   UNL     1       2.534 -54.603  20.018  0.00  0.00    +0.000 A 
ENDBRANCH   9  10
ENDBRANCH   8   9
ENDBRANCH   4   5
ENDBRANCH   3   4
TORSDOF 6
ENDMDL
MODEL 8
REMARK VINA RESULT:      -8.0     23.581     26.674
REMARK  Name = Fragment
REMARK  8 active torsions:
REMARK  status: ('A' for Active; 'I' for Inactive)
REMARK    1  A    between atoms: C_3  and  C_4
REMARK    2  A    between atoms: C_4  and  C_5
REMARK    3  A    between atoms: N_8  and  C_9
REMARK    4  A    between atoms: C_9  and  C_10
REMARK    5  A    between atoms: C_22  and  O_23
REMARK    6  A    between atoms: O_23  and  C_24
REMARK    7  A    between atoms: C_25  and  O_26
REMARK    8  A    between atoms: O_26  and  C_27
REMARK                            x       y       z     vdW  Elec       q    Type
REMARK                         _______ _______ _______ _____ _____    ______ ____
ROOT
ATOM      1  O   UNL     1       5.611 -55.414  12.187  0.00  0.00    +0.000 OA
ATOM      2  C   UNL     1       4.735 -55.592  13.003  0.00  0.00    +0.000 C 
ATOM      3  C   UNL     1       3.233 -55.508  12.700  0.00  0.00    +0.000 C 
ATOM     18  C   UNL     1       2.538 -55.837  14.043  0.00  0.00    +0.000 C 
ATOM     19  C   UNL     1       3.724 -56.029  14.939  0.00  0.00    +0.000 A 
ATOM     20  C   UNL     1       4.890 -55.887  14.316  0.00  0.00    +0.000 A 
ATOM     21  C   UNL     1       6.042 -56.033  14.981  0.00  0.00    +0.000 A 
ATOM     22  C   UNL     1       6.058 -56.320  16.303  0.00  0.00    +0.000 A 
ATOM     25  C   UNL     1       4.867 -56.492  16.943  0.00  0.00    +0.000 A 
ATOM     28  C   UNL     1       3.723 -56.323  16.242  0.00  0.00    +0.000 A 
ENDROOT
BRANCH  22  23
ATOM     23  O   UNL     1       7.233 -56.490  16.998  0.00  0.00    +0.000 OA
ATOM     24  C   UNL     1       7.880 -57.741  16.999  0.00  0.00    +0.000 C 
ENDBRANCH  22  23
BRANCH  25  26
ATOM     26  O   UNL     1       4.699 -56.771  18.283  0.00  0.00    +0.000 OA
ATOM     27  C   UNL     1       3.787 -56.036  19.065  0.00  0.00    +0.000 C 
ENDBRANCH  25  26
BRANCH   3   4
ATOM      4  C   UNL     1       2.819 -56.414  11.528  0.00  0.00    +0.000 C 
BRANCH   4   5
ATOM      5  C   UNL     1       1.563 -55.958  10.758  0.00  0.00    +0.000 C 
ATOM      6  C   UNL     1       0.376 -56.886  11.068  0.00  0.00    +0.000 C 
ATOM      7  C   UNL     1      -0.895 -56.438  10.330  0.00  0.00    +0.000 C 
ATOM      8  N   UNL     1      -1.257 -55.067  10.663  0.00  0.00    +0.000 NA
ATOM     16  C   UNL     1      -0.170 -54.154  10.334  0.00  0.00    +0.000 C 
ATOM     17  C   UNL     1       1.131 -54.517  11.066  0.00  0.00    +0.000 C 
BRANCH   8   9
ATOM      9  C   UNL     1      -2.499 -54.684   9.999  0.00  0.00    +0.000 C 
BRANCH   9  10
ATOM     10  C   UNL     1      -3.556 -55.759  10.162  0.00  0.00    +0.000 A 
ATOM     11  C   UNL     1      -3.880 -56.554   9.127  0.00  0.00    +0.000 A 
ATOM     12  C   UNL     1      -4.812 -57.512   9.257  0.00  0.00    +0.000 A 
ATOM     13  C   UNL     1      -5.436 -57.685  10.431  0.00  0.00    +0.000 A 
ATOM     14  C   UNL     1      -5.123 -56.897  11.471  0.00  0.00    +0.000 A 
ATOM     15  C   UNL     1      -4.191 -55.942  11.334  0.00  0.00    +0.000 A 
ENDBRANCH   9  10
ENDBRANCH   8   9
ENDBRANCH   4   5
ENDBRANCH   3   4
TORSDOF 6
ENDMDL
MODEL 9
REMARK VINA RESULT:      -7.9      5.573     11.425
REMARK  Name = Fragment
REMARK  8 active torsions:
REMARK  status: ('A' for Active; 'I' for Inactive)
REMARK    1  A    between atoms: C_3  and  C_4
REMARK    2  A    between atoms: C_4  and  C_5
REMARK    3  A    between atoms: N_8  and  C_9
REMARK    4  A    between atoms: C_9  and  C_10
REMARK    5  A    between atoms: C_22  and  O_23
REMARK    6  A    between atoms: O_23  and  C_24
REMARK    7  A    between atoms: C_25  and  O_26
REMARK    8  A    between atoms: O_26  and  C_27
REMARK                            x       y       z     vdW  Elec       q    Type
REMARK                         _______ _______ _______ _____ _____    ______ ____
ROOT
ATOM      1  O   UNL     1     -21.422 -40.523  24.073  0.00  0.00    +0.000 OA
ATOM      2  C   UNL     1     -20.783 -40.981  24.993  0.00  0.00    +0.000 C 
ATOM      3  C   UNL     1     -21.262 -41.022  26.450  0.00  0.00    +0.000 C 
ATOM     18  C   UNL     1     -20.117 -41.718  27.224  0.00  0.00    +0.000 C 
ATOM     19  C   UNL     1     -19.126 -41.947  26.124  0.00  0.00    +0.000 A 
ATOM     20  C   UNL     1     -19.546 -41.530  24.934  0.00  0.00    +0.000 A 
ATOM     21  C   UNL     1     -18.775 -41.670  23.850  0.00  0.00    +0.000 A 
ATOM     22  C   UNL     1     -17.547 -42.231  23.929  0.00  0.00    +0.000 A 
ATOM     25  C   UNL     1     -17.120 -42.684  25.142  0.00  0.00    +0.000 A 
ATOM     28  C   UNL     1     -17.920 -42.514  26.217  0.00  0.00    +0.000 A 
ENDROOT
BRANCH  22  23
ATOM     23  O   UNL     1     -16.748 -42.398  22.821  0.00  0.00    +0.000 OA
ATOM     24  C   UNL     1     -16.267 -41.274  22.121  0.00  0.00    +0.000 C 
ENDBRANCH  22  23
BRANCH  25  26
ATOM     26  O   UNL     1     -15.896 -43.264  25.405  0.00  0.00    +0.000 OA
ATOM     27  C   UNL     1     -15.085 -42.793  26.455  0.00  0.00    +0.000 C 
ENDBRANCH  25  26
BRANCH   3   4
ATOM      4  C   UNL     1     -22.636 -41.699  26.597  0.00  0.00    +0.000 C 
BRANCH   4   5
ATOM      5  C   UNL     1     -23.748 -40.805  27.182  0.00  0.00    +0.000 C 
ATOM      6  C   UNL     1     -24.257 -41.382  28.514  0.00  0.00    +0.000 C 
ATOM      7  C   UNL     1     -25.350 -40.496  29.129  0.00  0.00    +0.000 C 
ATOM      8  N   UNL     1     -24.884 -39.133  29.343  0.00  0.00    +0.000 NA
ATOM     16  C   UNL     1     -24.441 -38.539  28.088  0.00  0.00    +0.000 C 
ATOM     17  C   UNL     1     -23.317 -39.353  27.429  0.00  0.00    +0.000 C 
BRANCH   8   9
ATOM      9  C   UNL     1     -25.918 -38.326  29.983  0.00  0.00    +0.000 C 
BRANCH   9  10
ATOM     10  C   UNL     1     -25.647 -38.173  31.467  0.00  0.00    +0.000 A 
ATOM     11  C   UNL     1     -24.492 -37.633  31.893  0.00  0.00    +0.000 A 
ATOM     12  C   UNL     1     -24.239 -37.488  33.203  0.00  0.00    +0.000 A 
ATOM     13  C   UNL     1     -25.144 -37.886  34.108  0.00  0.00    +0.000 A 
ATOM     14  C   UNL     1     -26.301 -38.427  33.697  0.00  0.00    +0.000 A 
ATOM     15  C   UNL     1     -26.547 -38.569  32.385  0.00  0.00    +0.000 A 
ENDBRANCH   9  10
ENDBRANCH   8   9
ENDBRANCH   4   5
ENDBRANCH   3   4
TORSDOF 6
ENDMDL
MODEL 10
REMARK VINA RESULT:      -7.8     24.427     27.172
REMARK  Name = Fragment
REMARK  8 active torsions:
REMARK  status: ('A' for Active; 'I' for Inactive)
REMARK    1  A    between atoms: C_3  and  C_4
REMARK    2  A    between atoms: C_4  and  C_5
REMARK    3  A    between atoms: N_8  and  C_9
REMARK    4  A    between atoms: C_9  and  C_10
REMARK    5  A    between atoms: C_22  and  O_23
REMARK    6  A    between atoms: O_23  and  C_24
REMARK    7  A    between atoms: C_25  and  O_26
REMARK    8  A    between atoms: O_26  and  C_27
REMARK                            x       y       z     vdW  Elec       q    Type
REMARK                         _______ _______ _______ _____ _____    ______ ____
ROOT
ATOM      1  O   UNL     1       1.306 -53.703  12.168  0.00  0.00    +0.000 OA
ATOM      2  C   UNL     1       1.684 -54.721  11.635  0.00  0.00    +0.000 C 
ATOM      3  C   UNL     1       0.829 -55.581  10.695  0.00  0.00    +0.000 C 
ATOM     18  C   UNL     1       1.758 -56.739  10.260  0.00  0.00    +0.000 C 
ATOM     19  C   UNL     1       3.001 -56.413  11.031  0.00  0.00    +0.000 A 
ATOM     20  C   UNL     1       2.902 -55.303  11.757  0.00  0.00    +0.000 A 
ATOM     21  C   UNL     1       3.931 -54.877  12.497  0.00  0.00    +0.000 A 
ATOM     22  C   UNL     1       5.097 -55.560  12.539  0.00  0.00    +0.000 A 
ATOM     25  C   UNL     1       5.215 -56.686  11.779  0.00  0.00    +0.000 A 
ATOM     28  C   UNL     1       4.151 -57.094  11.053  0.00  0.00    +0.000 A 
ENDROOT
BRANCH  22  23
ATOM     23  O   UNL     1       6.170 -55.127  13.282  0.00  0.00    +0.000 OA
ATOM     24  C   UNL     1       6.252 -55.436  14.654  0.00  0.00    +0.000 C 
ENDBRANCH  22  23
BRANCH  25  26
ATOM     26  O   UNL     1       6.321 -57.508  11.714  0.00  0.00    +0.000 OA
ATOM     27  C   UNL     1       6.419 -58.650  12.532  0.00  0.00    +0.000 C 
ENDBRANCH  25  26
BRANCH   3   4
ATOM      4  C   UNL     1       0.237 -54.767   9.531  0.00  0.00    +0.000 C 
BRANCH   4   5
ATOM      5  C   UNL     1      -1.206 -55.143   9.135  0.00  0.00    +0.000 C 
ATOM      6  C   UNL     1      -1.260 -56.589   8.614  0.00  0.00    +0.000 C 
ATOM      7  C   UNL     1      -2.692 -56.996   8.234  0.00  0.00    +0.000 C 
ATOM      8  N   UNL     1      -3.609 -56.855   9.357  0.00  0.00    +0.000 NA
ATOM     16  C   UNL     1      -3.619 -55.482   9.844  0.00  0.00    +0.000 C 
ATOM     17  C   UNL     1      -2.221 -55.013  10.279  0.00  0.00    +0.000 C 
BRANCH   8   9
ATOM      9  C   UNL     1      -4.948 -57.304   8.991  0.00  0.00    +0.000 C 
BRANCH   9  10
ATOM     10  C   UNL     1      -5.484 -58.299  10.002  0.00  0.00    +0.000 A 
ATOM     11  C   UNL     1      -6.567 -59.042   9.715  0.00  0.00    +0.000 A 
ATOM     12  C   UNL     1      -7.051 -59.929  10.599  0.00  0.00    +0.000 A 
ATOM     13  C   UNL     1      -6.454 -60.082  11.790  0.00  0.00    +0.000 A 
ATOM     14  C   UNL     1      -5.372 -59.347  12.090  0.00  0.00    +0.000 A 
ATOM     15  C   UNL     1      -4.894 -58.462  11.201  0.00  0.00    +0.000 A 
ENDBRANCH   9  10
ENDBRANCH   8   9
ENDBRANCH   4   5
ENDBRANCH   3   4
TORSDOF 6
ENDMDL
