MODEL 1
REMARK VINA RESULT:     -10.1      0.000      0.000
REMARK  Name = Fragment
REMARK  3 active torsions:
REMARK  status: ('A' for Active; 'I' for Inactive)
REMARK    1  A    between atoms: C_1  and  C_2
REMARK    2  A    between atoms: C_2  and  C_4
REMARK    3  A    between atoms: C_10  and  C_11
REMARK                            x       y       z     vdW  Elec       q    Type
REMARK                         _______ _______ _______ _____ _____    ______ ____
ROOT
ATOM      1  C   UNL     1     -14.390 -43.551  26.093  0.00  0.00    +0.000 C 
ATOM     10  C   UNL     1     -14.027 -44.748  26.601  0.00  0.00    +0.000 C 
ENDROOT
BRANCH  10  11
ATOM     11  C   UNL     1     -12.907 -45.057  27.297  0.00  0.00    +0.000 A 
ATOM     12  C   UNL     1     -12.210 -44.056  27.877  0.00  0.00    +0.000 A 
ATOM     13  C   UNL     1     -11.090 -44.277  28.584  0.00  0.00    +0.000 A 
ATOM     14  C   UNL     1     -10.628 -45.525  28.735  0.00  0.00    +0.000 A 
ATOM     15  C   UNL     1     -11.299 -46.539  28.171  0.00  0.00    +0.000 A 
ATOM     16  C   UNL     1     -12.418 -46.304  27.466  0.00  0.00    +0.000 A 
ENDBRANCH  10  11
BRANCH   1   2
ATOM      2  C   UNL     1     -15.496 -43.189  25.390  0.00  0.00    +0.000 C 
ATOM      3  C   UNL     1     -15.414 -43.233  24.041  0.00  0.00    +0.000 C 
BRANCH   2   4
ATOM      4  C   UNL     1     -16.654 -42.794  26.003  0.00  0.00    +0.000 A 
ATOM      5  C   UNL     1     -16.771 -42.653  27.346  0.00  0.00    +0.000 A 
ATOM      6  C   UNL     1     -17.895 -42.267  27.971  0.00  0.00    +0.000 A 
ATOM      7  C   UNL     1     -18.999 -41.992  27.269  0.00  0.00    +0.000 A 
ATOM      8  C   UNL     1     -18.940 -42.115  25.939  0.00  0.00    +0.000 A 
ATOM      9  C   UNL     1     -17.801 -42.503  25.341  0.00  0.00    +0.000 A 
ENDBRANCH   2   4
ENDBRANCH   1   2
TORSDOF 3
ENDMDL
MODEL 2
REMARK VINA RESULT:      -9.6      1.162      2.687
REMARK  Name = Fragment
REMARK  3 active torsions:
REMARK  status: ('A' for Active; 'I' for Inactive)
REMARK    1  A    between atoms: C_1  and  C_2
REMARK    2  A    between atoms: C_2  and  C_4
REMARK    3  A    between atoms: C_10  and  C_11
REMARK                            x       y       z     vdW  Elec       q    Type
REMARK                         _______ _______ _______ _____ _____    ______ ____
ROOT
ATOM      1  C   UNL     1     -14.719 -43.650  26.716  0.00  0.00    +0.000 C 
ATOM     10  C   UNL     1     -14.305 -44.362  27.786  0.00  0.00    +0.000 C 
ENDROOT
BRANCH  10  11
ATOM     11  C   UNL     1     -13.141 -45.035  27.943  0.00  0.00    +0.000 A 
ATOM     12  C   UNL     1     -12.941 -46.158  27.219  0.00  0.00    +0.000 A 
ATOM     13  C   UNL     1     -11.815 -46.883  27.316  0.00  0.00    +0.000 A 
ATOM     14  C   UNL     1     -10.841 -46.502  28.152  0.00  0.00    +0.000 A 
ATOM     15  C   UNL     1     -11.012 -45.391  28.884  0.00  0.00    +0.000 A 
ATOM     16  C   UNL     1     -12.143 -44.675  28.777  0.00  0.00    +0.000 A 
ENDBRANCH  10  11
BRANCH   1   2
ATOM      2  C   UNL     1     -15.871 -42.958  26.508  0.00  0.00    +0.000 C 
ATOM      3  C   UNL     1     -16.605 -42.636  27.597  0.00  0.00    +0.000 C 
BRANCH   2   4
ATOM      4  C   UNL     1     -16.289 -42.595  25.257  0.00  0.00    +0.000 A 
ATOM      5  C   UNL     1     -17.582 -42.668  24.858  0.00  0.00    +0.000 A 
ATOM      6  C   UNL     1     -18.018 -42.318  23.636  0.00  0.00    +0.000 A 
ATOM      7  C   UNL     1     -17.161 -41.861  22.718  0.00  0.00    +0.000 A 
ATOM      8  C   UNL     1     -15.872 -41.768  23.059  0.00  0.00    +0.000 A 
ATOM      9  C   UNL     1     -15.464 -42.126  24.289  0.00  0.00    +0.000 A 
ENDBRANCH   2   4
ENDBRANCH   1   2
TORSDOF 3
ENDMDL
MODEL 3
REMARK VINA RESULT:      -9.5      1.385      6.584
REMARK  Name = Fragment
REMARK  3 active torsions:
REMARK  status: ('A' for Active; 'I' for Inactive)
REMARK    1  A    between atoms: C_1  and  C_2
REMARK    2  A    between atoms: C_2  and  C_4
REMARK    3  A    between atoms: C_10  and  C_11
REMARK                            x       y       z     vdW  Elec       q    Type
REMARK                         _______ _______ _______ _____ _____    ______ ____
ROOT
ATOM      1  C   UNL     1     -15.984 -43.052  26.162  0.00  0.00    +0.000 C 
ATOM     10  C   UNL     1     -16.996 -42.817  25.301  0.00  0.00    +0.000 C 
ENDROOT
BRANCH  10  11
ATOM     11  C   UNL     1     -18.213 -42.286  25.565  0.00  0.00    +0.000 A 
ATOM     12  C   UNL     1     -18.608 -42.186  26.853  0.00  0.00    +0.000 A 
ATOM     13  C   UNL     1     -19.799 -41.672  27.200  0.00  0.00    +0.000 A 
ATOM     14  C   UNL     1     -20.643 -41.236  26.256  0.00  0.00    +0.000 A 
ATOM     15  C   UNL     1     -20.278 -41.324  24.969  0.00  0.00    +0.000 A 
ATOM     16  C   UNL     1     -19.084 -41.840  24.635  0.00  0.00    +0.000 A 
ENDBRANCH  10  11
BRANCH   1   2
ATOM      2  C   UNL     1     -14.748 -43.580  25.949  0.00  0.00    +0.000 C 
ATOM      3  C   UNL     1     -14.114 -43.231  24.807  0.00  0.00    +0.000 C 
BRANCH   2   4
ATOM      4  C   UNL     1     -14.154 -44.430  26.841  0.00  0.00    +0.000 A 
ATOM      5  C   UNL     1     -14.265 -44.291  28.185  0.00  0.00    +0.000 A 
ATOM      6  C   UNL     1     -13.692 -45.112  29.081  0.00  0.00    +0.000 A 
ATOM      7  C   UNL     1     -12.954 -46.148  28.673  0.00  0.00    +0.000 A 
ATOM      8  C   UNL     1     -12.811 -46.333  27.356  0.00  0.00    +0.000 A 
ATOM      9  C   UNL     1     -13.396 -45.495  26.483  0.00  0.00    +0.000 A 
ENDBRANCH   2   4
ENDBRANCH   1   2
TORSDOF 3
ENDMDL
MODEL 4
REMARK VINA RESULT:      -9.2      1.263      6.539
REMARK  Name = Fragment
REMARK  3 active torsions:
REMARK  status: ('A' for Active; 'I' for Inactive)
REMARK    1  A    between atoms: C_1  and  C_2
REMARK    2  A    between atoms: C_2  and  C_4
REMARK    3  A    between atoms: C_10  and  C_11
REMARK                            x       y       z     vdW  Elec       q    Type
REMARK                         _______ _______ _______ _____ _____    ______ ____
ROOT
ATOM      1  C   UNL     1     -13.747 -44.231  26.762  0.00  0.00    +0.000 C 
ATOM     10  C   UNL     1     -14.945 -43.615  26.856  0.00  0.00    +0.000 C 
ENDROOT
BRANCH  10  11
ATOM     11  C   UNL     1     -15.769 -43.229  25.853  0.00  0.00    +0.000 A 
ATOM     12  C   UNL     1     -15.342 -43.367  24.578  0.00  0.00    +0.000 A 
ATOM     13  C   UNL     1     -16.097 -43.008  23.527  0.00  0.00    +0.000 A 
ATOM     14  C   UNL     1     -17.318 -42.494  23.722  0.00  0.00    +0.000 A 
ATOM     15  C   UNL     1     -17.767 -42.345  24.976  0.00  0.00    +0.000 A 
ATOM     16  C   UNL     1     -17.003 -42.708  26.019  0.00  0.00    +0.000 A 
ENDBRANCH  10  11
BRANCH   1   2
ATOM      2  C   UNL     1     -12.885 -44.638  27.732  0.00  0.00    +0.000 C 
ATOM      3  C   UNL     1     -13.223 -45.742  28.437  0.00  0.00    +0.000 C 
BRANCH   2   4
ATOM      4  C   UNL     1     -11.720 -43.972  28.001  0.00  0.00    +0.000 A 
ATOM      5  C   UNL     1     -10.696 -44.524  28.695  0.00  0.00    +0.000 A 
ATOM      6  C   UNL     1      -9.543 -43.892  28.972  0.00  0.00    +0.000 A 
ATOM      7  C   UNL     1      -9.343 -42.637  28.557  0.00  0.00    +0.000 A 
ATOM      8  C   UNL     1     -10.322 -42.045  27.866  0.00  0.00    +0.000 A 
ATOM      9  C   UNL     1     -11.466 -42.701  27.605  0.00  0.00    +0.000 A 
ENDBRANCH   2   4
ENDBRANCH   1   2
TORSDOF 3
ENDMDL
MODEL 5
REMARK VINA RESULT:      -9.2      1.118      2.116
REMARK  Name = Fragment
REMARK  3 active torsions:
REMARK  status: ('A' for Active; 'I' for Inactive)
REMARK    1  A    between atoms: C_1  and  C_2
REMARK    2  A    between atoms: C_2  and  C_4
REMARK    3  A    between atoms: C_10  and  C_11
REMARK                            x       y       z     vdW  Elec       q    Type
REMARK                         _______ _______ _______ _____ _____    ______ ____
ROOT
ATOM      1  C   UNL     1     -16.019 -43.336  25.497  0.00  0.00    +0.000 C 
ATOM     10  C   UNL     1     -14.795 -42.905  25.869  0.00  0.00    +0.000 C 
ENDROOT
BRANCH  10  11
ATOM     11  C   UNL     1     -13.858 -43.567  26.589  0.00  0.00    +0.000 A 
ATOM     12  C   UNL     1     -12.758 -42.894  26.990  0.00  0.00    +0.000 A 
ATOM     13  C   UNL     1     -11.783 -43.476  27.706  0.00  0.00    +0.000 A 
ATOM     14  C   UNL     1     -11.881 -44.768  28.047  0.00  0.00    +0.000 A 
ATOM     15  C   UNL     1     -12.962 -45.461  27.662  0.00  0.00    +0.000 A 
ATOM     16  C   UNL     1     -13.930 -44.866  26.946  0.00  0.00    +0.000 A 
ENDBRANCH  10  11
BRANCH   1   2
ATOM      2  C   UNL     1     -16.993 -42.715  24.778  0.00  0.00    +0.000 C 
ATOM      3  C   UNL     1     -16.779 -42.559  23.452  0.00  0.00    +0.000 C 
BRANCH   2   4
ATOM      4  C   UNL     1     -18.148 -42.260  25.354  0.00  0.00    +0.000 A 
ATOM      5  C   UNL     1     -19.184 -41.758  24.639  0.00  0.00    +0.000 A 
ATOM      6  C   UNL     1     -20.327 -41.305  25.180  0.00  0.00    +0.000 A 
ATOM      7  C   UNL     1     -20.505 -41.330  26.504  0.00  0.00    +0.000 A 
ATOM      8  C   UNL     1     -19.514 -41.816  27.258  0.00  0.00    +0.000 A 
ATOM      9  C   UNL     1     -18.381 -42.262  26.689  0.00  0.00    +0.000 A 
ENDBRANCH   2   4
ENDBRANCH   1   2
TORSDOF 3
ENDMDL
MODEL 6
REMARK VINA RESULT:      -8.4      2.500      7.963
REMARK  Name = Fragment
REMARK  3 active torsions:
REMARK  status: ('A' for Active; 'I' for Inactive)
REMARK    1  A    between atoms: C_1  and  C_2
REMARK    2  A    between atoms: C_2  and  C_4
REMARK    3  A    between atoms: C_10  and  C_11
REMARK                            x       y       z     vdW  Elec       q    Type
REMARK                         _______ _______ _______ _____ _____    ______ ____
ROOT
ATOM      1  C   UNL     1     -18.796 -42.001  26.438  0.00  0.00    +0.000 C 
ATOM     10  C   UNL     1     -19.874 -41.432  27.020  0.00  0.00    +0.000 C 
ENDROOT
BRANCH  10  11
ATOM     11  C   UNL     1     -21.015 -41.003  26.430  0.00  0.00    +0.000 A 
ATOM     12  C   UNL     1     -21.062 -40.944  25.081  0.00  0.00    +0.000 A 
ATOM     13  C   UNL     1     -22.154 -40.531  24.419  0.00  0.00    +0.000 A 
ATOM     14  C   UNL     1     -23.248 -40.158  25.096  0.00  0.00    +0.000 A 
ATOM     15  C   UNL     1     -23.230 -40.207  26.435  0.00  0.00    +0.000 A 
ATOM     16  C   UNL     1     -22.131 -40.622  27.085  0.00  0.00    +0.000 A 
ENDBRANCH  10  11
BRANCH   1   2
ATOM      2  C   UNL     1     -17.632 -42.446  26.981  0.00  0.00    +0.000 C 
ATOM      3  C   UNL     1     -17.565 -42.516  28.330  0.00  0.00    +0.000 C 
BRANCH   2   4
ATOM      4  C   UNL     1     -16.561 -42.814  26.213  0.00  0.00    +0.000 A 
ATOM      5  C   UNL     1     -15.364 -43.176  26.736  0.00  0.00    +0.000 A 
ATOM      6  C   UNL     1     -14.298 -43.541  26.004  0.00  0.00    +0.000 A 
ATOM      7  C   UNL     1     -14.370 -43.565  24.670  0.00  0.00    +0.000 A 
ATOM      8  C   UNL     1     -15.529 -43.216  24.101  0.00  0.00    +0.000 A 
ATOM      9  C   UNL     1     -16.579 -42.856  24.858  0.00  0.00    +0.000 A 
ENDBRANCH   2   4
ENDBRANCH   1   2
TORSDOF 3
ENDMDL
MODEL 7
REMARK VINA RESULT:      -8.3      1.679      3.114
REMARK  Name = Fragment
REMARK  3 active torsions:
REMARK  status: ('A' for Active; 'I' for Inactive)
REMARK    1  A    between atoms: C_1  and  C_2
REMARK    2  A    between atoms: C_2  and  C_4
REMARK    3  A    between atoms: C_10  and  C_11
REMARK                            x       y       z     vdW  Elec       q    Type
REMARK                         _______ _______ _______ _____ _____    ______ ____
ROOT
ATOM      1  C   UNL     1     -17.118 -43.054  25.286  0.00  0.00    +0.000 C 
ATOM     10  C   UNL     1     -15.851 -42.833  25.699  0.00  0.00    +0.000 C 
ENDROOT
BRANCH  10  11
ATOM     11  C   UNL     1     -15.055 -43.648  26.429  0.00  0.00    +0.000 A 
ATOM     12  C   UNL     1     -15.126 -43.583  27.777  0.00  0.00    +0.000 A 
ATOM     13  C   UNL     1     -14.370 -44.357  28.573  0.00  0.00    +0.000 A 
ATOM     14  C   UNL     1     -13.508 -45.231  28.037  0.00  0.00    +0.000 A 
ATOM     15  C   UNL     1     -13.417 -45.317  26.703  0.00  0.00    +0.000 A 
ATOM     16  C   UNL     1     -14.178 -44.538  25.918  0.00  0.00    +0.000 A 
ENDBRANCH  10  11
BRANCH   1   2
ATOM      2  C   UNL     1     -17.958 -42.274  24.555  0.00  0.00    +0.000 C 
ATOM      3  C   UNL     1     -17.592 -41.994  23.283  0.00  0.00    +0.000 C 
BRANCH   2   4
ATOM      4  C   UNL     1     -19.128 -41.782  25.065  0.00  0.00    +0.000 A 
ATOM      5  C   UNL     1     -20.114 -41.266  24.293  0.00  0.00    +0.000 A 
ATOM      6  C   UNL     1     -21.271 -40.777  24.769  0.00  0.00    +0.000 A 
ATOM      7  C   UNL     1     -21.515 -40.776  26.083  0.00  0.00    +0.000 A 
ATOM      8  C   UNL     1     -20.575 -41.274  26.893  0.00  0.00    +0.000 A 
ATOM      9  C   UNL     1     -19.426 -41.757  26.388  0.00  0.00    +0.000 A 
ENDBRANCH   2   4
ENDBRANCH   1   2
TORSDOF 3
ENDMDL
MODEL 8
REMARK VINA RESULT:      -8.2      3.828      8.274
REMARK  Name = Fragment
REMARK  3 active torsions:
REMARK  status: ('A' for Active; 'I' for Inactive)
REMARK    1  A    between atoms: C_1  and  C_2
REMARK    2  A    between atoms: C_2  and  C_4
REMARK    3  A    between atoms: C_10  and  C_11
REMARK                            x       y       z     vdW  Elec       q    Type
REMARK                         _______ _______ _______ _____ _____    ______ ____
ROOT
ATOM      1  C   UNL     1     -18.607 -41.765  23.201  0.00  0.00    +0.000 C 
ATOM     10  C   UNL     1     -18.492 -40.795  22.270  0.00  0.00    +0.000 C 
ENDROOT
BRANCH  10  11
ATOM     11  C   UNL     1     -19.482 -40.128  21.630  0.00  0.00    +0.000 A 
ATOM     12  C   UNL     1     -20.489 -39.606  22.364  0.00  0.00    +0.000 A 
ATOM     13  C   UNL     1     -21.507 -38.932  21.807  0.00  0.00    +0.000 A 
ATOM     14  C   UNL     1     -21.550 -38.756  20.479  0.00  0.00    +0.000 A 
ATOM     15  C   UNL     1     -20.564 -39.264  19.726  0.00  0.00    +0.000 A 
ATOM     16  C   UNL     1     -19.551 -39.937  20.295  0.00  0.00    +0.000 A 
ENDBRANCH  10  11
BRANCH   1   2
ATOM      2  C   UNL     1     -17.651 -42.463  23.872  0.00  0.00    +0.000 C 
ATOM      3  C   UNL     1     -16.770 -43.173  23.131  0.00  0.00    +0.000 C 
BRANCH   2   4
ATOM      4  C   UNL     1     -17.567 -42.461  25.237  0.00  0.00    +0.000 A 
ATOM      5  C   UNL     1     -16.417 -42.709  25.909  0.00  0.00    +0.000 A 
ATOM      6  C   UNL     1     -16.308 -42.712  27.248  0.00  0.00    +0.000 A 
ATOM      7  C   UNL     1     -17.374 -42.460  28.014  0.00  0.00    +0.000 A 
ATOM      8  C   UNL     1     -18.536 -42.209  27.402  0.00  0.00    +0.000 A 
ATOM      9  C   UNL     1     -18.615 -42.212  26.060  0.00  0.00    +0.000 A 
ENDBRANCH   2   4
ENDBRANCH   1   2
TORSDOF 3
ENDMDL
MODEL 9
REMARK VINA RESULT:      -8.2      2.136      7.497
REMARK  Name = Fragment
REMARK  3 active torsions:
REMARK  status: ('A' for Active; 'I' for Inactive)
REMARK    1  A    between atoms: C_1  and  C_2
REMARK    2  A    between atoms: C_2  and  C_4
REMARK    3  A    between atoms: C_10  and  C_11
REMARK                            x       y       z     vdW  Elec       q    Type
REMARK                         _______ _______ _______ _____ _____    ______ ____
ROOT
ATOM      1  C   UNL     1     -18.076 -42.095  24.998  0.00  0.00    +0.000 C 
ATOM     10  C   UNL     1     -19.230 -41.742  24.393  0.00  0.00    +0.000 C 
ENDROOT
BRANCH  10  11
ATOM     11  C   UNL     1     -20.369 -41.284  24.964  0.00  0.00    +0.000 A 
ATOM     12  C   UNL     1     -20.469 -41.305  26.312  0.00  0.00    +0.000 A 
ATOM     13  C   UNL     1     -21.563 -40.869  26.956  0.00  0.00    +0.000 A 
ATOM     14  C   UNL     1     -22.606 -40.393  26.262  0.00  0.00    +0.000 A 
ATOM     15  C   UNL     1     -22.534 -40.360  24.924  0.00  0.00    +0.000 A 
ATOM     16  C   UNL     1     -21.434 -40.799  24.292  0.00  0.00    +0.000 A 
ENDBRANCH  10  11
BRANCH   1   2
ATOM      2  C   UNL     1     -16.910 -42.558  24.474  0.00  0.00    +0.000 C 
ATOM      3  C   UNL     1     -16.713 -42.380  23.148  0.00  0.00    +0.000 C 
BRANCH   2   4
ATOM      4  C   UNL     1     -15.962 -43.182  25.239  0.00  0.00    +0.000 A 
ATOM      5  C   UNL     1     -15.873 -43.024  26.582  0.00  0.00    +0.000 A 
ATOM      6  C   UNL     1     -14.952 -43.624  27.355  0.00  0.00    +0.000 A 
ATOM      7  C   UNL     1     -14.042 -44.439  26.814  0.00  0.00    +0.000 A 
ATOM      8  C   UNL     1     -14.084 -44.631  25.491  0.00  0.00    +0.000 A 
ATOM      9  C   UNL     1     -15.017 -44.017  24.743  0.00  0.00    +0.000 A 
ENDBRANCH   2   4
ENDBRANCH   1   2
TORSDOF 3
ENDMDL
MODEL 10
REMARK VINA RESULT:      -8.1     20.904     24.420
REMARK  Name = Fragment
REMARK  3 active torsions:
REMARK  status: ('A' for Active; 'I' for Inactive)
REMARK    1  A    between atoms: C_1  and  C_2
REMARK    2  A    between atoms: C_2  and  C_4
REMARK    3  A    between atoms: C_10  and  C_11
REMARK                            x       y       z     vdW  Elec       q    Type
REMARK                         _______ _______ _______ _____ _____    ______ ____
ROOT
ATOM      1  C   UNL     1       4.087 -55.408  17.228  0.00  0.00    +0.000 C 
ATOM     10  C   UNL     1       4.301 -54.619  18.302  0.00  0.00    +0.000 C 
ENDROOT
BRANCH  10  11
ATOM     11  C   UNL     1       3.397 -54.171  19.205  0.00  0.00    +0.000 A 
ATOM     12  C   UNL     1       3.365 -52.851  19.487  0.00  0.00    +0.000 A 
ATOM     13  C   UNL     1       2.500 -52.327  20.370  0.00  0.00    +0.000 A 
ATOM     14  C   UNL     1       1.627 -53.120  21.006  0.00  0.00    +0.000 A 
ATOM     15  C   UNL     1       1.636 -54.434  20.745  0.00  0.00    +0.000 A 
ATOM     16  C   UNL     1       2.507 -54.946  19.860  0.00  0.00    +0.000 A 
ENDBRANCH  10  11
BRANCH   1   2
ATOM      2  C   UNL     1       4.955 -55.884  16.295  0.00  0.00    +0.000 C 
ATOM      3  C   UNL     1       5.976 -56.654  16.735  0.00  0.00    +0.000 C 
BRANCH   2   4
ATOM      4  C   UNL     1       4.818 -55.607  14.962  0.00  0.00    +0.000 A 
ATOM      5  C   UNL     1       3.642 -55.718  14.299  0.00  0.00    +0.000 A 
ATOM      6  C   UNL     1       3.481 -55.453  12.992  0.00  0.00    +0.000 A 
ATOM      7  C   UNL     1       4.518 -55.050  12.251  0.00  0.00    +0.000 A 
ATOM      8  C   UNL     1       5.704 -54.923  12.856  0.00  0.00    +0.000 A 
ATOM      9  C   UNL     1       5.835 -55.196  14.165  0.00  0.00    +0.000 A 
ENDBRANCH   2   4
ENDBRANCH   1   2
TORSDOF 3
ENDMDL
