MODEL 1
REMARK VINA RESULT:     -10.1      0.000      0.000
REMARK  Name = Fragment
REMARK  3 active torsions:
REMARK  status: ('A' for Active; 'I' for Inactive)
REMARK    1  A    between atoms: C_1  and  C_2
REMARK    2  A    between atoms: C_2  and  C_4
REMARK    3  A    between atoms: C_10  and  C_11
REMARK                            x       y       z     vdW  Elec       q    Type
REMARK                         _______ _______ _______ _____ _____    ______ ____
ROOT
ATOM      1  C   UNL     1     -14.261 -43.583  26.146  0.00  0.00    +0.000 C 
ATOM     10  C   UNL     1     -13.917 -44.780  26.668  0.00  0.00    +0.000 C 
ENDROOT
BRANCH  10  11
ATOM     11  C   UNL     1     -12.802 -45.099  27.367  0.00  0.00    +0.000 A 
ATOM     12  C   UNL     1     -12.140 -44.113  28.012  0.00  0.00    +0.000 A 
ATOM     13  C   UNL     1     -11.027 -44.345  28.726  0.00  0.00    +0.000 A 
ATOM     14  C   UNL     1     -10.536 -45.588  28.819  0.00  0.00    +0.000 A 
ATOM     15  C   UNL     1     -11.172 -46.586  28.189  0.00  0.00    +0.000 A 
ATOM     16  C   UNL     1     -12.284 -46.340  27.478  0.00  0.00    +0.000 A 
ENDBRANCH  10  11
BRANCH   1   2
ATOM      2  C   UNL     1     -15.362 -43.212  25.440  0.00  0.00    +0.000 C 
ATOM      3  C   UNL     1     -15.271 -43.241  24.091  0.00  0.00    +0.000 C 
BRANCH   2   4
ATOM      4  C   UNL     1     -16.523 -42.821  26.049  0.00  0.00    +0.000 A 
ATOM      5  C   UNL     1     -16.644 -42.681  27.391  0.00  0.00    +0.000 A 
ATOM      6  C   UNL     1     -17.772 -42.300  28.014  0.00  0.00    +0.000 A 
ATOM      7  C   UNL     1     -18.875 -42.029  27.309  0.00  0.00    +0.000 A 
ATOM      8  C   UNL     1     -18.811 -42.151  25.979  0.00  0.00    +0.000 A 
ATOM      9  C   UNL     1     -17.669 -42.535  25.383  0.00  0.00    +0.000 A 
ENDBRANCH   2   4
ENDBRANCH   1   2
TORSDOF 3
ENDMDL
MODEL 2
REMARK VINA RESULT:     -10.0      0.133      1.622
REMARK  Name = Fragment
REMARK  3 active torsions:
REMARK  status: ('A' for Active; 'I' for Inactive)
REMARK    1  A    between atoms: C_1  and  C_2
REMARK    2  A    between atoms: C_2  and  C_4
REMARK    3  A    between atoms: C_10  and  C_11
REMARK                            x       y       z     vdW  Elec       q    Type
REMARK                         _______ _______ _______ _____ _____    ______ ____
ROOT
ATOM      1  C   UNL     1     -14.356 -43.543  26.104  0.00  0.00    +0.000 C 
ATOM     10  C   UNL     1     -14.008 -44.706  26.694  0.00  0.00    +0.000 C 
ENDROOT
BRANCH  10  11
ATOM     11  C   UNL     1     -12.874 -44.992  27.376  0.00  0.00    +0.000 A 
ATOM     12  C   UNL     1     -12.438 -46.271  27.398  0.00  0.00    +0.000 A 
ATOM     13  C   UNL     1     -11.324 -46.638  28.051  0.00  0.00    +0.000 A 
ATOM     14  C   UNL     1     -10.601 -45.723  28.710  0.00  0.00    +0.000 A 
ATOM     15  C   UNL     1     -11.009 -44.446  28.705  0.00  0.00    +0.000 A 
ATOM     16  C   UNL     1     -12.126 -44.093  28.048  0.00  0.00    +0.000 A 
ENDBRANCH  10  11
BRANCH   1   2
ATOM      2  C   UNL     1     -15.476 -43.205  25.410  0.00  0.00    +0.000 C 
ATOM      3  C   UNL     1     -15.415 -43.278  24.061  0.00  0.00    +0.000 C 
BRANCH   2   4
ATOM      4  C   UNL     1     -16.628 -42.805  26.032  0.00  0.00    +0.000 A 
ATOM      5  C   UNL     1     -17.767 -42.508  25.361  0.00  0.00    +0.000 A 
ATOM      6  C   UNL     1     -18.910 -42.114  25.948  0.00  0.00    +0.000 A 
ATOM      7  C   UNL     1     -18.980 -41.990  27.277  0.00  0.00    +0.000 A 
ATOM      8  C   UNL     1     -17.883 -42.271  27.989  0.00  0.00    +0.000 A 
ATOM      9  C   UNL     1     -16.754 -42.664  27.374  0.00  0.00    +0.000 A 
ENDBRANCH   2   4
ENDBRANCH   1   2
TORSDOF 3
ENDMDL
MODEL 3
REMARK VINA RESULT:      -9.5      1.372      6.597
REMARK  Name = Fragment
REMARK  3 active torsions:
REMARK  status: ('A' for Active; 'I' for Inactive)
REMARK    1  A    between atoms: C_1  and  C_2
REMARK    2  A    between atoms: C_2  and  C_4
REMARK    3  A    between atoms: C_10  and  C_11
REMARK                            x       y       z     vdW  Elec       q    Type
REMARK                         _______ _______ _______ _____ _____    ______ ____
ROOT
ATOM      1  C   UNL     1     -15.949 -43.190  26.293  0.00  0.00    +0.000 C 
ATOM     10  C   UNL     1     -16.876 -42.785  25.400  0.00  0.00    +0.000 C 
ENDROOT
BRANCH  10  11
ATOM     11  C   UNL     1     -18.112 -42.287  25.644  0.00  0.00    +0.000 A 
ATOM     12  C   UNL     1     -18.526 -42.187  26.926  0.00  0.00    +0.000 A 
ATOM     13  C   UNL     1     -19.736 -41.704  27.252  0.00  0.00    +0.000 A 
ATOM     14  C   UNL     1     -20.580 -41.302  26.293  0.00  0.00    +0.000 A 
ATOM     15  C   UNL     1     -20.195 -41.390  25.012  0.00  0.00    +0.000 A 
ATOM     16  C   UNL     1     -18.982 -41.874  24.699  0.00  0.00    +0.000 A 
ENDBRANCH  10  11
BRANCH   1   2
ATOM      2  C   UNL     1     -14.700 -43.694  26.103  0.00  0.00    +0.000 C 
ATOM      3  C   UNL     1     -14.065 -43.357  24.957  0.00  0.00    +0.000 C 
BRANCH   2   4
ATOM      4  C   UNL     1     -14.094 -44.510  27.019  0.00  0.00    +0.000 A 
ATOM      5  C   UNL     1     -14.272 -44.383  28.356  0.00  0.00    +0.000 A 
ATOM      6  C   UNL     1     -13.689 -45.170  29.275  0.00  0.00    +0.000 A 
ATOM      7  C   UNL     1     -12.872 -46.159  28.899  0.00  0.00    +0.000 A 
ATOM      8  C   UNL     1     -12.661 -46.329  27.589  0.00  0.00    +0.000 A 
ATOM      9  C   UNL     1     -13.258 -45.526  26.692  0.00  0.00    +0.000 A 
ENDBRANCH   2   4
ENDBRANCH   1   2
TORSDOF 3
ENDMDL
MODEL 4
REMARK VINA RESULT:      -9.4      1.172      6.538
REMARK  Name = Fragment
REMARK  3 active torsions:
REMARK  status: ('A' for Active; 'I' for Inactive)
REMARK    1  A    between atoms: C_1  and  C_2
REMARK    2  A    between atoms: C_2  and  C_4
REMARK    3  A    between atoms: C_10  and  C_11
REMARK                            x       y       z     vdW  Elec       q    Type
REMARK                         _______ _______ _______ _____ _____    ______ ____
ROOT
ATOM      1  C   UNL     1     -13.905 -44.308  27.030  0.00  0.00    +0.000 C 
ATOM     10  C   UNL     1     -14.248 -44.084  25.743  0.00  0.00    +0.000 C 
ENDROOT
BRANCH  10  11
ATOM     11  C   UNL     1     -15.381 -43.518  25.266  0.00  0.00    +0.000 A 
ATOM     12  C   UNL     1     -15.555 -43.448  23.928  0.00  0.00    +0.000 A 
ATOM     13  C   UNL     1     -16.650 -42.903  23.374  0.00  0.00    +0.000 A 
ATOM     14  C   UNL     1     -17.618 -42.403  24.153  0.00  0.00    +0.000 A 
ATOM     15  C   UNL     1     -17.473 -42.458  25.485  0.00  0.00    +0.000 A 
ATOM     16  C   UNL     1     -16.373 -43.007  26.026  0.00  0.00    +0.000 A 
ENDBRANCH  10  11
BRANCH   1   2
ATOM      2  C   UNL     1     -12.786 -44.870  27.560  0.00  0.00    +0.000 C 
ATOM      3  C   UNL     1     -12.777 -46.215  27.703  0.00  0.00    +0.000 C 
BRANCH   2   4
ATOM      4  C   UNL     1     -11.703 -44.124  27.939  0.00  0.00    +0.000 A 
ATOM      5  C   UNL     1     -11.569 -42.809  27.640  0.00  0.00    +0.000 A 
ATOM      6  C   UNL     1     -10.517 -42.055  28.000  0.00  0.00    +0.000 A 
ATOM      7  C   UNL     1      -9.511 -42.588  28.700  0.00  0.00    +0.000 A 
ATOM      8  C   UNL     1      -9.592 -43.883  29.023  0.00  0.00    +0.000 A 
ATOM      9  C   UNL     1     -10.657 -44.613  28.649  0.00  0.00    +0.000 A 
ENDBRANCH   2   4
ENDBRANCH   1   2
TORSDOF 3
ENDMDL
MODEL 5
REMARK VINA RESULT:      -9.2      1.201      2.634
REMARK  Name = Fragment
REMARK  3 active torsions:
REMARK  status: ('A' for Active; 'I' for Inactive)
REMARK    1  A    between atoms: C_1  and  C_2
REMARK    2  A    between atoms: C_2  and  C_4
REMARK    3  A    between atoms: C_10  and  C_11
REMARK                            x       y       z     vdW  Elec       q    Type
REMARK                         _______ _______ _______ _____ _____    ______ ____
ROOT
ATOM      1  C   UNL     1     -16.174 -42.924  25.700  0.00  0.00    +0.000 C 
ATOM     10  C   UNL     1     -15.014 -43.563  25.436  0.00  0.00    +0.000 C 
ENDROOT
BRANCH  10  11
ATOM     11  C   UNL     1     -13.996 -43.835  26.286  0.00  0.00    +0.000 A 
ATOM     12  C   UNL     1     -13.848 -45.101  26.734  0.00  0.00    +0.000 A 
ATOM     13  C   UNL     1     -12.865 -45.452  27.578  0.00  0.00    +0.000 A 
ATOM     14  C   UNL     1     -11.988 -44.535  28.006  0.00  0.00    +0.000 A 
ATOM     15  C   UNL     1     -12.110 -43.270  27.579  0.00  0.00    +0.000 A 
ATOM     16  C   UNL     1     -13.098 -42.932  26.734  0.00  0.00    +0.000 A 
ENDBRANCH  10  11
BRANCH   1   2
ATOM      2  C   UNL     1     -17.223 -42.627  24.888  0.00  0.00    +0.000 C 
ATOM      3  C   UNL     1     -17.052 -42.821  23.560  0.00  0.00    +0.000 C 
BRANCH   2   4
ATOM      4  C   UNL     1     -18.411 -42.152  25.373  0.00  0.00    +0.000 A 
ATOM      5  C   UNL     1     -19.364 -41.598  24.585  0.00  0.00    +0.000 A 
ATOM      6  C   UNL     1     -20.538 -41.124  25.036  0.00  0.00    +0.000 A 
ATOM      7  C   UNL     1     -20.833 -41.178  26.338  0.00  0.00    +0.000 A 
ATOM      8  C   UNL     1     -19.927 -41.715  27.162  0.00  0.00    +0.000 A 
ATOM      9  C   UNL     1     -18.761 -42.182  26.682  0.00  0.00    +0.000 A 
ENDBRANCH   2   4
ENDBRANCH   1   2
TORSDOF 3
ENDMDL
MODEL 6
REMARK VINA RESULT:      -8.7      1.509      6.662
REMARK  Name = Fragment
REMARK  3 active torsions:
REMARK  status: ('A' for Active; 'I' for Inactive)
REMARK    1  A    between atoms: C_1  and  C_2
REMARK    2  A    between atoms: C_2  and  C_4
REMARK    3  A    between atoms: C_10  and  C_11
REMARK                            x       y       z     vdW  Elec       q    Type
REMARK                         _______ _______ _______ _____ _____    ______ ____
ROOT
ATOM      1  C   UNL     1     -12.671 -43.160  27.592  0.00  0.00    +0.000 C 
ATOM     10  C   UNL     1     -13.104 -43.220  26.315  0.00  0.00    +0.000 C 
ENDROOT
BRANCH  10  11
ATOM     11  C   UNL     1     -14.370 -43.087  25.854  0.00  0.00    +0.000 A 
ATOM     12  C   UNL     1     -14.600 -43.273  24.536  0.00  0.00    +0.000 A 
ATOM     13  C   UNL     1     -15.826 -43.160  23.999  0.00  0.00    +0.000 A 
ATOM     14  C   UNL     1     -16.873 -42.852  24.775  0.00  0.00    +0.000 A 
ATOM     15  C   UNL     1     -16.674 -42.662  26.087  0.00  0.00    +0.000 A 
ATOM     16  C   UNL     1     -15.443 -42.778  26.612  0.00  0.00    +0.000 A 
ENDBRANCH  10  11
BRANCH   1   2
ATOM      2  C   UNL     1     -11.418 -43.287  28.107  0.00  0.00    +0.000 C 
ATOM      3  C   UNL     1     -10.487 -42.398  27.692  0.00  0.00    +0.000 C 
BRANCH   2   4
ATOM      4  C   UNL     1     -11.093 -44.264  29.007  0.00  0.00    +0.000 A 
ATOM      5  C   UNL     1     -10.598 -45.472  28.643  0.00  0.00    +0.000 A 
ATOM      6  C   UNL     1     -10.271 -46.448  29.507  0.00  0.00    +0.000 A 
ATOM      7  C   UNL     1     -10.426 -46.266  30.822  0.00  0.00    +0.000 A 
ATOM      8  C   UNL     1     -10.912 -45.092  31.237  0.00  0.00    +0.000 A 
ATOM      9  C   UNL     1     -11.230 -44.134  30.350  0.00  0.00    +0.000 A 
ENDBRANCH   2   4
ENDBRANCH   1   2
TORSDOF 3
ENDMDL
MODEL 7
REMARK VINA RESULT:      -8.5      1.429      6.646
REMARK  Name = Fragment
REMARK  3 active torsions:
REMARK  status: ('A' for Active; 'I' for Inactive)
REMARK    1  A    between atoms: C_1  and  C_2
REMARK    2  A    between atoms: C_2  and  C_4
REMARK    3  A    between atoms: C_10  and  C_11
REMARK                            x       y       z     vdW  Elec       q    Type
REMARK                         _______ _______ _______ _____ _____    ______ ____
ROOT
ATOM      1  C   UNL     1     -12.811 -43.000  27.287  0.00  0.00    +0.000 C 
ATOM     10  C   UNL     1     -13.253 -43.034  26.012  0.00  0.00    +0.000 C 
ENDROOT
BRANCH  10  11
ATOM     11  C   UNL     1     -14.529 -42.964  25.567  0.00  0.00    +0.000 A 
ATOM     12  C   UNL     1     -14.771 -43.196  24.258  0.00  0.00    +0.000 A 
ATOM     13  C   UNL     1     -16.007 -43.146  23.737  0.00  0.00    +0.000 A 
ATOM     14  C   UNL     1     -17.055 -42.858  24.521  0.00  0.00    +0.000 A 
ATOM     15  C   UNL     1     -16.845 -42.623  25.824  0.00  0.00    +0.000 A 
ATOM     16  C   UNL     1     -15.603 -42.677  26.332  0.00  0.00    +0.000 A 
ENDBRANCH  10  11
BRANCH   1   2
ATOM      2  C   UNL     1     -11.547 -43.067  27.786  0.00  0.00    +0.000 C 
ATOM      3  C   UNL     1     -10.791 -41.948  27.708  0.00  0.00    +0.000 C 
BRANCH   2   4
ATOM      4  C   UNL     1     -11.043 -44.208  28.347  0.00  0.00    +0.000 A 
ATOM      5  C   UNL     1      -9.957 -44.217  29.158  0.00  0.00    +0.000 A 
ATOM      6  C   UNL     1      -9.442 -45.323  29.721  0.00  0.00    +0.000 A 
ATOM      7  C   UNL     1     -10.000 -46.517  29.499  0.00  0.00    +0.000 A 
ATOM      8  C   UNL     1     -11.075 -46.566  28.706  0.00  0.00    +0.000 A 
ATOM      9  C   UNL     1     -11.568 -45.443  28.156  0.00  0.00    +0.000 A 
ENDBRANCH   2   4
ENDBRANCH   1   2
TORSDOF 3
ENDMDL
MODEL 8
REMARK VINA RESULT:      -8.4      2.534      8.005
REMARK  Name = Fragment
REMARK  3 active torsions:
REMARK  status: ('A' for Active; 'I' for Inactive)
REMARK    1  A    between atoms: C_1  and  C_2
REMARK    2  A    between atoms: C_2  and  C_4
REMARK    3  A    between atoms: C_10  and  C_11
REMARK                            x       y       z     vdW  Elec       q    Type
REMARK                         _______ _______ _______ _____ _____    ______ ____
ROOT
ATOM      1  C   UNL     1     -18.710 -41.951  26.404  0.00  0.00    +0.000 C 
ATOM     10  C   UNL     1     -19.874 -41.578  26.977  0.00  0.00    +0.000 C 
ENDROOT
BRANCH  10  11
ATOM     11  C   UNL     1     -20.984 -41.090  26.375  0.00  0.00    +0.000 A 
ATOM     12  C   UNL     1     -21.026 -41.059  25.025  0.00  0.00    +0.000 A 
ATOM     13  C   UNL     1     -22.089 -40.590  24.351  0.00  0.00    +0.000 A 
ATOM     14  C   UNL     1     -23.158 -40.133  25.017  0.00  0.00    +0.000 A 
ATOM     15  C   UNL     1     -23.144 -40.152  26.357  0.00  0.00    +0.000 A 
ATOM     16  C   UNL     1     -22.075 -40.623  27.019  0.00  0.00    +0.000 A 
ENDBRANCH  10  11
BRANCH   1   2
ATOM      2  C   UNL     1     -17.571 -42.445  26.959  0.00  0.00    +0.000 C 
ATOM      3  C   UNL     1     -17.526 -42.527  28.308  0.00  0.00    +0.000 C 
BRANCH   2   4
ATOM      4  C   UNL     1     -16.504 -42.847  26.203  0.00  0.00    +0.000 A 
ATOM      5  C   UNL     1     -15.321 -43.235  26.738  0.00  0.00    +0.000 A 
ATOM      6  C   UNL     1     -14.259 -43.634  26.018  0.00  0.00    +0.000 A 
ATOM      7  C   UNL     1     -14.322 -43.669  24.683  0.00  0.00    +0.000 A 
ATOM      8  C   UNL     1     -15.468 -43.296  24.102  0.00  0.00    +0.000 A 
ATOM      9  C   UNL     1     -16.514 -42.902  24.848  0.00  0.00    +0.000 A 
ENDBRANCH   2   4
ENDBRANCH   1   2
TORSDOF 3
ENDMDL
MODEL 9
REMARK VINA RESULT:      -8.2      2.254      7.655
REMARK  Name = Fragment
REMARK  3 active torsions:
REMARK  status: ('A' for Active; 'I' for Inactive)
REMARK    1  A    between atoms: C_1  and  C_2
REMARK    2  A    between atoms: C_2  and  C_4
REMARK    3  A    between atoms: C_10  and  C_11
REMARK                            x       y       z     vdW  Elec       q    Type
REMARK                         _______ _______ _______ _____ _____    ______ ____
ROOT
ATOM      1  C   UNL     1     -18.157 -42.088  24.953  0.00  0.00    +0.000 C 
ATOM     10  C   UNL     1     -19.306 -41.705  24.357  0.00  0.00    +0.000 C 
ENDROOT
BRANCH  10  11
ATOM     11  C   UNL     1     -20.438 -41.243  24.940  0.00  0.00    +0.000 A 
ATOM     12  C   UNL     1     -20.532 -41.280  26.287  0.00  0.00    +0.000 A 
ATOM     13  C   UNL     1     -21.619 -40.841  26.942  0.00  0.00    +0.000 A 
ATOM     14  C   UNL     1     -22.660 -40.345  26.260  0.00  0.00    +0.000 A 
ATOM     15  C   UNL     1     -22.594 -40.296  24.922  0.00  0.00    +0.000 A 
ATOM     16  C   UNL     1     -21.501 -40.738  24.279  0.00  0.00    +0.000 A 
ENDBRANCH  10  11
BRANCH   1   2
ATOM      2  C   UNL     1     -16.998 -42.557  24.418  0.00  0.00    +0.000 C 
ATOM      3  C   UNL     1     -16.832 -42.417  23.083  0.00  0.00    +0.000 C 
BRANCH   2   4
ATOM      4  C   UNL     1     -16.029 -43.150  25.180  0.00  0.00    +0.000 A 
ATOM      5  C   UNL     1     -15.070 -43.956  24.663  0.00  0.00    +0.000 A 
ATOM      6  C   UNL     1     -14.108 -44.549  25.389  0.00  0.00    +0.000 A 
ATOM      7  C   UNL     1     -14.047 -44.364  26.712  0.00  0.00    +0.000 A 
ATOM      8  C   UNL     1     -14.970 -43.577  27.274  0.00  0.00    +0.000 A 
ATOM      9  C   UNL     1     -15.922 -42.996  26.523  0.00  0.00    +0.000 A 
ENDBRANCH   2   4
ENDBRANCH   1   2
TORSDOF 3
ENDMDL
MODEL 10
REMARK VINA RESULT:      -8.1     20.765     24.330
REMARK  Name = Fragment
REMARK  3 active torsions:
REMARK  status: ('A' for Active; 'I' for Inactive)
REMARK    1  A    between atoms: C_1  and  C_2
REMARK    2  A    between atoms: C_2  and  C_4
REMARK    3  A    between atoms: C_10  and  C_11
REMARK                            x       y       z     vdW  Elec       q    Type
REMARK                         _______ _______ _______ _____ _____    ______ ____
ROOT
ATOM      1  C   UNL     1       4.049 -55.351  17.261  0.00  0.00    +0.000 C 
ATOM     10  C   UNL     1       4.293 -54.588  18.348  0.00  0.00    +0.000 C 
ENDROOT
BRANCH  10  11
ATOM     11  C   UNL     1       3.402 -54.084  19.234  0.00  0.00    +0.000 A 
ATOM     12  C   UNL     1       2.551 -54.934  19.850  0.00  0.00    +0.000 A 
ATOM     13  C   UNL     1       1.638 -54.515  20.740  0.00  0.00    +0.000 A 
ATOM     14  C   UNL     1       1.547 -53.215  21.047  0.00  0.00    +0.000 A 
ATOM     15  C   UNL     1       2.378 -52.348  20.452  0.00  0.00    +0.000 A 
ATOM     16  C   UNL     1       3.287 -52.780  19.562  0.00  0.00    +0.000 A 
ENDBRANCH  10  11
BRANCH   1   2
ATOM      2  C   UNL     1       4.902 -55.880  16.344  0.00  0.00    +0.000 C 
ATOM      3  C   UNL     1       5.876 -56.698  16.805  0.00  0.00    +0.000 C 
BRANCH   2   4
ATOM      4  C   UNL     1       4.798 -55.609  15.007  0.00  0.00    +0.000 A 
ATOM      5  C   UNL     1       3.637 -55.723  14.317  0.00  0.00    +0.000 A 
ATOM      6  C   UNL     1       3.508 -55.463  13.005  0.00  0.00    +0.000 A 
ATOM      7  C   UNL     1       4.563 -55.063  12.288  0.00  0.00    +0.000 A 
ATOM      8  C   UNL     1       5.734 -54.933  12.920  0.00  0.00    +0.000 A 
ATOM      9  C   UNL     1       5.834 -55.201  14.234  0.00  0.00    +0.000 A 
ENDBRANCH   2   4
ENDBRANCH   1   2
TORSDOF 3
ENDMDL
