MODEL 1
REMARK VINA RESULT:     -10.5      0.000      0.000
REMARK  Name = Fragment
REMARK  4 active torsions:
REMARK  status: ('A' for Active; 'I' for Inactive)
REMARK    1  A    between atoms: C_1  and  C_2
REMARK    2  A    between atoms: C_2  and  C_3
REMARK    3  A    between atoms: C_9  and  C_10
REMARK    4  A    between atoms: C_13  and  C_16
REMARK                            x       y       z     vdW  Elec       q    Type
REMARK                         _______ _______ _______ _____ _____    ______ ____
ROOT
ATOM     10  C   UNL     1     -13.432 -44.715  26.909  0.00  0.00    +0.000 A 
ATOM     11  C   UNL     1     -13.174 -46.033  27.038  0.00  0.00    +0.000 A 
ATOM     12  C   UNL     1     -12.172 -46.488  27.806  0.00  0.00    +0.000 A 
ATOM     13  C   UNL     1     -11.379 -45.643  28.484  0.00  0.00    +0.000 A 
ATOM     14  C   UNL     1     -11.630 -44.328  28.362  0.00  0.00    +0.000 A 
ATOM     15  C   UNL     1     -12.632 -43.874  27.592  0.00  0.00    +0.000 A 
ENDROOT
BRANCH  13  16
ATOM     16  C   UNL     1     -10.244 -46.120  29.358  0.00  0.00    +0.000 C 
ATOM     17  F   UNL     1     -10.640 -46.644  30.507  0.00  0.00    +0.000 F 
ATOM     18  F   UNL     1      -9.424 -45.118  29.636  0.00  0.00    +0.000 F 
ATOM     19  F   UNL     1      -9.530 -47.038  28.724  0.00  0.00    +0.000 F 
ENDBRANCH  13  16
BRANCH  10   9
ATOM      1  C   UNL     1     -15.078 -43.131  26.103  0.00  0.00    +0.000 C 
ATOM      9  C   UNL     1     -14.455 -44.323  26.120  0.00  0.00    +0.000 C 
BRANCH   1   2
ATOM      2  C   UNL     1     -16.216 -42.844  25.150  0.00  0.00    +0.000 C 
BRANCH   2   3
ATOM      3  C   UNL     1     -17.578 -42.425  25.676  0.00  0.00    +0.000 A 
ATOM      4  C   UNL     1     -18.604 -42.010  24.909  0.00  0.00    +0.000 A 
ATOM      5  C   UNL     1     -19.782 -41.656  25.448  0.00  0.00    +0.000 A 
ATOM      6  C   UNL     1     -19.963 -41.708  26.776  0.00  0.00    +0.000 A 
ATOM      7  C   UNL     1     -18.954 -42.119  27.558  0.00  0.00    +0.000 A 
ATOM      8  C   UNL     1     -17.782 -42.470  27.008  0.00  0.00    +0.000 A 
ENDBRANCH   2   3
ENDBRANCH   1   2
ENDBRANCH  10   9
TORSDOF 4
ENDMDL
MODEL 2
REMARK VINA RESULT:     -10.5      4.052      8.408
REMARK  Name = Fragment
REMARK  4 active torsions:
REMARK  status: ('A' for Active; 'I' for Inactive)
REMARK    1  A    between atoms: C_1  and  C_2
REMARK    2  A    between atoms: C_2  and  C_3
REMARK    3  A    between atoms: C_9  and  C_10
REMARK    4  A    between atoms: C_13  and  C_16
REMARK                            x       y       z     vdW  Elec       q    Type
REMARK                         _______ _______ _______ _____ _____    ______ ____
ROOT
ATOM     10  C   UNL     1     -12.152 -44.961  28.090  0.00  0.00    +0.000 A 
ATOM     11  C   UNL     1     -12.111 -43.643  27.809  0.00  0.00    +0.000 A 
ATOM     12  C   UNL     1     -12.925 -43.085  26.900  0.00  0.00    +0.000 A 
ATOM     13  C   UNL     1     -13.823 -43.825  26.227  0.00  0.00    +0.000 A 
ATOM     14  C   UNL     1     -13.870 -45.140  26.502  0.00  0.00    +0.000 A 
ATOM     15  C   UNL     1     -13.054 -45.696  27.411  0.00  0.00    +0.000 A 
ENDROOT
BRANCH  13  16
ATOM     16  C   UNL     1     -14.755 -43.230  25.198  0.00  0.00    +0.000 C 
ATOM     17  F   UNL     1     -14.697 -41.910  25.127  0.00  0.00    +0.000 F 
ATOM     18  F   UNL     1     -16.008 -43.563  25.465  0.00  0.00    +0.000 F 
ATOM     19  F   UNL     1     -14.478 -43.709  23.995  0.00  0.00    +0.000 F 
ENDBRANCH  13  16
BRANCH  10   9
ATOM      1  C   UNL     1     -11.595 -45.908  30.249  0.00  0.00    +0.000 C 
ATOM      9  C   UNL     1     -11.304 -45.460  29.016  0.00  0.00    +0.000 C 
BRANCH   1   2
ATOM      2  C   UNL     1     -10.524 -46.441  31.173  0.00  0.00    +0.000 C 
BRANCH   2   3
ATOM      3  C   UNL     1      -9.355 -45.565  31.590  0.00  0.00    +0.000 A 
ATOM      4  C   UNL     1      -8.059 -45.908  31.476  0.00  0.00    +0.000 A 
ATOM      5  C   UNL     1      -7.078 -45.077  31.867  0.00  0.00    +0.000 A 
ATOM      6  C   UNL     1      -7.375 -43.876  32.385  0.00  0.00    +0.000 A 
ATOM      7  C   UNL     1      -8.660 -43.515  32.508  0.00  0.00    +0.000 A 
ATOM      8  C   UNL     1      -9.630 -44.354  32.114  0.00  0.00    +0.000 A 
ENDBRANCH   2   3
ENDBRANCH   1   2
ENDBRANCH  10   9
TORSDOF 4
ENDMDL
MODEL 3
REMARK VINA RESULT:     -10.4      4.474      7.984
REMARK  Name = Fragment
REMARK  4 active torsions:
REMARK  status: ('A' for Active; 'I' for Inactive)
REMARK    1  A    between atoms: C_1  and  C_2
REMARK    2  A    between atoms: C_2  and  C_3
REMARK    3  A    between atoms: C_9  and  C_10
REMARK    4  A    between atoms: C_13  and  C_16
REMARK                            x       y       z     vdW  Elec       q    Type
REMARK                         _______ _______ _______ _____ _____    ______ ____
ROOT
ATOM     10  C   UNL     1     -14.441 -44.090  26.273  0.00  0.00    +0.000 A 
ATOM     11  C   UNL     1     -14.712 -44.158  24.954  0.00  0.00    +0.000 A 
ATOM     12  C   UNL     1     -15.798 -43.575  24.422  0.00  0.00    +0.000 A 
ATOM     13  C   UNL     1     -16.665 -42.894  25.189  0.00  0.00    +0.000 A 
ATOM     14  C   UNL     1     -16.401 -42.821  26.505  0.00  0.00    +0.000 A 
ATOM     15  C   UNL     1     -15.315 -43.405  27.035  0.00  0.00    +0.000 A 
ENDROOT
BRANCH  13  16
ATOM     16  C   UNL     1     -17.896 -42.226  24.624  0.00  0.00    +0.000 C 
ATOM     17  F   UNL     1     -18.790 -43.075  24.143  0.00  0.00    +0.000 F 
ATOM     18  F   UNL     1     -17.563 -41.398  23.645  0.00  0.00    +0.000 F 
ATOM     19  F   UNL     1     -18.494 -41.499  25.556  0.00  0.00    +0.000 F 
ENDBRANCH  13  16
BRANCH  10   9
ATOM      1  C   UNL     1     -13.140 -46.009  26.975  0.00  0.00    +0.000 C 
ATOM      9  C   UNL     1     -13.331 -44.699  26.745  0.00  0.00    +0.000 C 
BRANCH   1   2
ATOM      2  C   UNL     1     -11.829 -46.539  27.509  0.00  0.00    +0.000 C 
BRANCH   2   3
ATOM      3  C   UNL     1     -11.435 -46.312  28.959  0.00  0.00    +0.000 A 
ATOM      4  C   UNL     1     -12.300 -46.077  29.963  0.00  0.00    +0.000 A 
ATOM      5  C   UNL     1     -11.874 -45.887  31.223  0.00  0.00    +0.000 A 
ATOM      6  C   UNL     1     -10.565 -45.927  31.509  0.00  0.00    +0.000 A 
ATOM      7  C   UNL     1      -9.686 -46.159  30.523  0.00  0.00    +0.000 A 
ATOM      8  C   UNL     1     -10.124 -46.348  29.269  0.00  0.00    +0.000 A 
ENDBRANCH   2   3
ENDBRANCH   1   2
ENDBRANCH  10   9
TORSDOF 4
ENDMDL
MODEL 4
REMARK VINA RESULT:     -10.3      4.220      7.989
REMARK  Name = Fragment
REMARK  4 active torsions:
REMARK  status: ('A' for Active; 'I' for Inactive)
REMARK    1  A    between atoms: C_1  and  C_2
REMARK    2  A    between atoms: C_2  and  C_3
REMARK    3  A    between atoms: C_9  and  C_10
REMARK    4  A    between atoms: C_13  and  C_16
REMARK                            x       y       z     vdW  Elec       q    Type
REMARK                         _______ _______ _______ _____ _____    ______ ____
ROOT
ATOM     10  C   UNL     1     -13.979 -44.760  27.619  0.00  0.00    +0.000 A 
ATOM     11  C   UNL     1     -14.867 -43.780  27.879  0.00  0.00    +0.000 A 
ATOM     12  C   UNL     1     -15.508 -43.124  26.898  0.00  0.00    +0.000 A 
ATOM     13  C   UNL     1     -15.289 -43.422  25.607  0.00  0.00    +0.000 A 
ATOM     14  C   UNL     1     -14.405 -44.399  25.340  0.00  0.00    +0.000 A 
ATOM     15  C   UNL     1     -13.764 -45.053  26.321  0.00  0.00    +0.000 A 
ENDROOT
BRANCH  13  16
ATOM     16  C   UNL     1     -15.993 -42.706  24.479  0.00  0.00    +0.000 C 
ATOM     17  F   UNL     1     -16.198 -43.464  23.414  0.00  0.00    +0.000 F 
ATOM     18  F   UNL     1     -15.289 -41.653  24.092  0.00  0.00    +0.000 F 
ATOM     19  F   UNL     1     -17.170 -42.255  24.884  0.00  0.00    +0.000 F 
ENDBRANCH  13  16
BRANCH  10   9
ATOM      1  C   UNL     1     -13.638 -45.268  29.963  0.00  0.00    +0.000 C 
ATOM      9  C   UNL     1     -13.367 -45.380  28.651  0.00  0.00    +0.000 C 
BRANCH   1   2
ATOM      2  C   UNL     1     -12.856 -46.036  31.004  0.00  0.00    +0.000 C 
BRANCH   2   3
ATOM      3  C   UNL     1     -11.421 -45.659  31.328  0.00  0.00    +0.000 A 
ATOM      4  C   UNL     1     -10.348 -46.434  31.084  0.00  0.00    +0.000 A 
ATOM      5  C   UNL     1      -9.106 -46.030  31.399  0.00  0.00    +0.000 A 
ATOM      6  C   UNL     1      -8.908 -44.833  31.970  0.00  0.00    +0.000 A 
ATOM      7  C   UNL     1      -9.963 -44.045  32.223  0.00  0.00    +0.000 A 
ATOM      8  C   UNL     1     -11.198 -44.460  31.903  0.00  0.00    +0.000 A 
ENDBRANCH   2   3
ENDBRANCH   1   2
ENDBRANCH  10   9
TORSDOF 4
ENDMDL
MODEL 5
REMARK VINA RESULT:     -10.1      4.521      8.221
REMARK  Name = Fragment
REMARK  4 active torsions:
REMARK  status: ('A' for Active; 'I' for Inactive)
REMARK    1  A    between atoms: C_1  and  C_2
REMARK    2  A    between atoms: C_2  and  C_3
REMARK    3  A    between atoms: C_9  and  C_10
REMARK    4  A    between atoms: C_13  and  C_16
REMARK                            x       y       z     vdW  Elec       q    Type
REMARK                         _______ _______ _______ _____ _____    ______ ____
ROOT
ATOM     10  C   UNL     1     -15.023 -43.743  26.835  0.00  0.00    +0.000 A 
ATOM     11  C   UNL     1     -16.143 -42.991  26.827  0.00  0.00    +0.000 A 
ATOM     12  C   UNL     1     -16.681 -42.533  25.687  0.00  0.00    +0.000 A 
ATOM     13  C   UNL     1     -16.122 -42.807  24.497  0.00  0.00    +0.000 A 
ATOM     14  C   UNL     1     -15.006 -43.557  24.496  0.00  0.00    +0.000 A 
ATOM     15  C   UNL     1     -14.468 -44.014  25.638  0.00  0.00    +0.000 A 
ENDROOT
BRANCH  13  16
ATOM     16  C   UNL     1     -16.701 -42.308  23.194  0.00  0.00    +0.000 C 
ATOM     17  F   UNL     1     -15.845 -41.613  22.463  0.00  0.00    +0.000 F 
ATOM     18  F   UNL     1     -17.752 -41.536  23.423  0.00  0.00    +0.000 F 
ATOM     19  F   UNL     1     -17.123 -43.325  22.458  0.00  0.00    +0.000 F 
ENDBRANCH  13  16
BRANCH  10   9
ATOM      1  C   UNL     1     -13.721 -45.222  28.246  0.00  0.00    +0.000 C 
ATOM      9  C   UNL     1     -14.532 -44.173  28.018  0.00  0.00    +0.000 C 
BRANCH   1   2
ATOM      2  C   UNL     1     -13.255 -45.575  29.640  0.00  0.00    +0.000 C 
BRANCH   2   3
ATOM      3  C   UNL     1     -11.809 -45.960  29.898  0.00  0.00    +0.000 A 
ATOM      4  C   UNL     1     -11.240 -46.045  31.115  0.00  0.00    +0.000 A 
ATOM      5  C   UNL     1      -9.952 -46.394  31.264  0.00  0.00    +0.000 A 
ATOM      6  C   UNL     1      -9.197 -46.668  30.190  0.00  0.00    +0.000 A 
ATOM      7  C   UNL     1      -9.743 -46.590  28.968  0.00  0.00    +0.000 A 
ATOM      8  C   UNL     1     -11.031 -46.240  28.833  0.00  0.00    +0.000 A 
ENDBRANCH   2   3
ENDBRANCH   1   2
ENDBRANCH  10   9
TORSDOF 4
ENDMDL
MODEL 6
REMARK VINA RESULT:      -9.7      5.343      8.654
REMARK  Name = Fragment
REMARK  4 active torsions:
REMARK  status: ('A' for Active; 'I' for Inactive)
REMARK    1  A    between atoms: C_1  and  C_2
REMARK    2  A    between atoms: C_2  and  C_3
REMARK    3  A    between atoms: C_9  and  C_10
REMARK    4  A    between atoms: C_13  and  C_16
REMARK                            x       y       z     vdW  Elec       q    Type
REMARK                         _______ _______ _______ _____ _____    ______ ____
ROOT
ATOM     10  C   UNL     1     -17.530 -42.416  25.761  0.00  0.00    +0.000 A 
ATOM     11  C   UNL     1     -18.009 -42.329  27.019  0.00  0.00    +0.000 A 
ATOM     12  C   UNL     1     -19.268 -41.942  27.274  0.00  0.00    +0.000 A 
ATOM     13  C   UNL     1     -20.110 -41.622  26.278  0.00  0.00    +0.000 A 
ATOM     14  C   UNL     1     -19.641 -41.707  25.021  0.00  0.00    +0.000 A 
ATOM     15  C   UNL     1     -18.381 -42.094  24.767  0.00  0.00    +0.000 A 
ENDROOT
BRANCH  13  16
ATOM     16  C   UNL     1     -21.534 -41.183  26.528  0.00  0.00    +0.000 C 
ATOM     17  F   UNL     1     -22.351 -42.177  26.836  0.00  0.00    +0.000 F 
ATOM     18  F   UNL     1     -22.024 -40.577  25.458  0.00  0.00    +0.000 F 
ATOM     19  F   UNL     1     -21.577 -40.307  27.520  0.00  0.00    +0.000 F 
ENDBRANCH  13  16
BRANCH  10   9
ATOM      1  C   UNL     1     -15.239 -42.786  26.454  0.00  0.00    +0.000 C 
ATOM      9  C   UNL     1     -16.253 -42.812  25.572  0.00  0.00    +0.000 C 
BRANCH   1   2
ATOM      2  C   UNL     1     -13.855 -43.270  26.087  0.00  0.00    +0.000 C 
BRANCH   2   3
ATOM      3  C   UNL     1     -13.110 -44.242  26.986  0.00  0.00    +0.000 A 
ATOM      4  C   UNL     1     -13.340 -45.567  27.043  0.00  0.00    +0.000 A 
ATOM      5  C   UNL     1     -12.638 -46.365  27.865  0.00  0.00    +0.000 A 
ATOM      6  C   UNL     1     -11.683 -45.851  28.654  0.00  0.00    +0.000 A 
ATOM      7  C   UNL     1     -11.437 -44.533  28.612  0.00  0.00    +0.000 A 
ATOM      8  C   UNL     1     -12.146 -43.748  27.788  0.00  0.00    +0.000 A 
ENDBRANCH   2   3
ENDBRANCH   1   2
ENDBRANCH  10   9
TORSDOF 4
ENDMDL
MODEL 7
REMARK VINA RESULT:      -9.3      5.339      8.567
REMARK  Name = Fragment
REMARK  4 active torsions:
REMARK  status: ('A' for Active; 'I' for Inactive)
REMARK    1  A    between atoms: C_1  and  C_2
REMARK    2  A    between atoms: C_2  and  C_3
REMARK    3  A    between atoms: C_9  and  C_10
REMARK    4  A    between atoms: C_13  and  C_16
REMARK                            x       y       z     vdW  Elec       q    Type
REMARK                         _______ _______ _______ _____ _____    ______ ____
ROOT
ATOM     10  C   UNL     1     -16.353 -42.900  25.448  0.00  0.00    +0.000 A 
ATOM     11  C   UNL     1     -17.594 -42.475  25.764  0.00  0.00    +0.000 A 
ATOM     12  C   UNL     1     -18.434 -41.986  24.839  0.00  0.00    +0.000 A 
ATOM     13  C   UNL     1     -18.070 -41.900  23.548  0.00  0.00    +0.000 A 
ATOM     14  C   UNL     1     -16.835 -42.323  23.225  0.00  0.00    +0.000 A 
ATOM     15  C   UNL     1     -15.996 -42.811  24.153  0.00  0.00    +0.000 A 
ENDROOT
BRANCH  13  16
ATOM     16  C   UNL     1     -18.989 -41.356  22.481  0.00  0.00    +0.000 C 
ATOM     17  F   UNL     1     -18.354 -40.764  21.482  0.00  0.00    +0.000 F 
ATOM     18  F   UNL     1     -19.828 -40.474  23.001  0.00  0.00    +0.000 F 
ATOM     19  F   UNL     1     -19.725 -42.330  21.966  0.00  0.00    +0.000 F 
ENDBRANCH  13  16
BRANCH  10   9
ATOM      1  C   UNL     1     -14.387 -44.031  26.299  0.00  0.00    +0.000 C 
ATOM      9  C   UNL     1     -15.557 -43.381  26.427  0.00  0.00    +0.000 C 
BRANCH   1   2
ATOM      2  C   UNL     1     -13.609 -44.509  27.503  0.00  0.00    +0.000 C 
BRANCH   2   3
ATOM      3  C   UNL     1     -12.203 -44.000  27.769  0.00  0.00    +0.000 A 
ATOM      4  C   UNL     1     -11.754 -42.773  27.441  0.00  0.00    +0.000 A 
ATOM      5  C   UNL     1     -10.494 -42.394  27.710  0.00  0.00    +0.000 A 
ATOM      6  C   UNL     1      -9.647 -43.239  28.316  0.00  0.00    +0.000 A 
ATOM      7  C   UNL     1     -10.073 -44.466  28.650  0.00  0.00    +0.000 A 
ATOM      8  C   UNL     1     -11.334 -44.833  28.377  0.00  0.00    +0.000 A 
ENDBRANCH   2   3
ENDBRANCH   1   2
ENDBRANCH  10   9
TORSDOF 4
ENDMDL
MODEL 8
REMARK VINA RESULT:      -9.3      1.977      3.077
REMARK  Name = Fragment
REMARK  4 active torsions:
REMARK  status: ('A' for Active; 'I' for Inactive)
REMARK    1  A    between atoms: C_1  and  C_2
REMARK    2  A    between atoms: C_2  and  C_3
REMARK    3  A    between atoms: C_9  and  C_10
REMARK    4  A    between atoms: C_13  and  C_16
REMARK                            x       y       z     vdW  Elec       q    Type
REMARK                         _______ _______ _______ _____ _____    ______ ____
ROOT
ATOM     10  C   UNL     1     -15.516 -43.297  25.393  0.00  0.00    +0.000 A 
ATOM     11  C   UNL     1     -14.761 -44.189  24.721  0.00  0.00    +0.000 A 
ATOM     12  C   UNL     1     -13.916 -45.021  25.350  0.00  0.00    +0.000 A 
ATOM     13  C   UNL     1     -13.789 -44.999  26.687  0.00  0.00    +0.000 A 
ATOM     14  C   UNL     1     -14.539 -44.113  27.364  0.00  0.00    +0.000 A 
ATOM     15  C   UNL     1     -15.383 -43.281  26.733  0.00  0.00    +0.000 A 
ENDROOT
BRANCH  13  16
ATOM     16  C   UNL     1     -12.850 -45.922  27.428  0.00  0.00    +0.000 C 
ATOM     17  F   UNL     1     -13.355 -46.404  28.552  0.00  0.00    +0.000 F 
ATOM     18  F   UNL     1     -11.727 -45.288  27.731  0.00  0.00    +0.000 F 
ATOM     19  F   UNL     1     -12.518 -46.951  26.663  0.00  0.00    +0.000 F 
ENDBRANCH  13  16
BRANCH  10   9
ATOM      1  C   UNL     1     -17.248 -42.831  23.764  0.00  0.00    +0.000 C 
ATOM      9  C   UNL     1     -16.345 -42.487  24.700  0.00  0.00    +0.000 C 
BRANCH   1   2
ATOM      2  C   UNL     1     -18.108 -41.797  23.074  0.00  0.00    +0.000 C 
BRANCH   2   3
ATOM      3  C   UNL     1     -19.431 -41.361  23.681  0.00  0.00    +0.000 A 
ATOM      4  C   UNL     1     -20.440 -40.789  22.997  0.00  0.00    +0.000 A 
ATOM      5  C   UNL     1     -21.582 -40.430  23.605  0.00  0.00    +0.000 A 
ATOM      6  C   UNL     1     -21.744 -40.636  24.920  0.00  0.00    +0.000 A 
ATOM      7  C   UNL     1     -20.751 -41.204  25.621  0.00  0.00    +0.000 A 
ATOM      8  C   UNL     1     -19.614 -41.558  25.002  0.00  0.00    +0.000 A 
ENDBRANCH   2   3
ENDBRANCH   1   2
ENDBRANCH  10   9
TORSDOF 4
ENDMDL
MODEL 9
REMARK VINA RESULT:      -9.0      5.447      8.640
REMARK  Name = Fragment
REMARK  4 active torsions:
REMARK  status: ('A' for Active; 'I' for Inactive)
REMARK    1  A    between atoms: C_1  and  C_2
REMARK    2  A    between atoms: C_2  and  C_3
REMARK    3  A    between atoms: C_9  and  C_10
REMARK    4  A    between atoms: C_13  and  C_16
REMARK                            x       y       z     vdW  Elec       q    Type
REMARK                         _______ _______ _______ _____ _____    ______ ____
ROOT
ATOM     10  C   UNL     1     -16.591 -42.562  24.861  0.00  0.00    +0.000 A 
ATOM     11  C   UNL     1     -16.829 -42.498  23.535  0.00  0.00    +0.000 A 
ATOM     12  C   UNL     1     -18.075 -42.440  23.039  0.00  0.00    +0.000 A 
ATOM     13  C   UNL     1     -19.144 -42.442  23.851  0.00  0.00    +0.000 A 
ATOM     14  C   UNL     1     -18.916 -42.505  25.174  0.00  0.00    +0.000 A 
ATOM     15  C   UNL     1     -17.669 -42.564  25.668  0.00  0.00    +0.000 A 
ENDROOT
BRANCH  13  16
ATOM     16  C   UNL     1     -20.560 -42.377  23.328  0.00  0.00    +0.000 C 
ATOM     17  F   UNL     1     -20.641 -42.404  22.007  0.00  0.00    +0.000 F 
ATOM     18  F   UNL     1     -21.153 -41.268  23.743  0.00  0.00    +0.000 F 
ATOM     19  F   UNL     1     -21.271 -43.392  23.795  0.00  0.00    +0.000 F 
ENDBRANCH  13  16
BRANCH  10   9
ATOM      1  C   UNL     1     -14.866 -42.994  26.506  0.00  0.00    +0.000 C 
ATOM      9  C   UNL     1     -15.313 -42.619  25.295  0.00  0.00    +0.000 C 
BRANCH   1   2
ATOM      2  C   UNL     1     -13.392 -43.005  26.839  0.00  0.00    +0.000 C 
BRANCH   2   3
ATOM      3  C   UNL     1     -12.719 -44.273  27.337  0.00  0.00    +0.000 A 
ATOM      4  C   UNL     1     -13.129 -45.523  27.053  0.00  0.00    +0.000 A 
ATOM      5  C   UNL     1     -12.480 -46.598  27.531  0.00  0.00    +0.000 A 
ATOM      6  C   UNL     1     -11.399 -46.445  28.309  0.00  0.00    +0.000 A 
ATOM      7  C   UNL     1     -10.974 -45.208  28.605  0.00  0.00    +0.000 A 
ATOM      8  C   UNL     1     -11.630 -44.143  28.121  0.00  0.00    +0.000 A 
ENDBRANCH   2   3
ENDBRANCH   1   2
ENDBRANCH  10   9
TORSDOF 4
ENDMDL
MODEL 10
REMARK VINA RESULT:      -8.7      3.300      5.350
REMARK  Name = Fragment
REMARK  4 active torsions:
REMARK  status: ('A' for Active; 'I' for Inactive)
REMARK    1  A    between atoms: C_1  and  C_2
REMARK    2  A    between atoms: C_2  and  C_3
REMARK    3  A    between atoms: C_9  and  C_10
REMARK    4  A    between atoms: C_13  and  C_16
REMARK                            x       y       z     vdW  Elec       q    Type
REMARK                         _______ _______ _______ _____ _____    ______ ____
ROOT
ATOM     10  C   UNL     1     -17.412 -42.479  24.889  0.00  0.00    +0.000 A 
ATOM     11  C   UNL     1     -17.292 -42.443  26.232  0.00  0.00    +0.000 A 
ATOM     12  C   UNL     1     -16.217 -42.942  26.862  0.00  0.00    +0.000 A 
ATOM     13  C   UNL     1     -15.208 -43.502  26.174  0.00  0.00    +0.000 A 
ATOM     14  C   UNL     1     -15.321 -43.542  24.835  0.00  0.00    +0.000 A 
ATOM     15  C   UNL     1     -16.397 -43.043  24.207  0.00  0.00    +0.000 A 
ENDROOT
BRANCH  13  16
ATOM     16  C   UNL     1     -13.984 -44.073  26.850  0.00  0.00    +0.000 C 
ATOM     17  F   UNL     1     -14.156 -44.324  28.138  0.00  0.00    +0.000 F 
ATOM     18  F   UNL     1     -12.964 -43.237  26.737  0.00  0.00    +0.000 F 
ATOM     19  F   UNL     1     -13.621 -45.205  26.266  0.00  0.00    +0.000 F 
ENDBRANCH  13  16
BRANCH  10   9
ATOM      1  C   UNL     1     -19.650 -41.550  24.920  0.00  0.00    +0.000 C 
ATOM      9  C   UNL     1     -18.520 -41.960  24.317  0.00  0.00    +0.000 C 
BRANCH   1   2
ATOM      2  C   UNL     1     -20.810 -40.987  24.133  0.00  0.00    +0.000 C 
BRANCH   2   3
ATOM      3  C   UNL     1     -20.646 -40.616  22.670  0.00  0.00    +0.000 A 
ATOM      4  C   UNL     1     -20.291 -39.397  22.220  0.00  0.00    +0.000 A 
ATOM      5  C   UNL     1     -20.165 -39.145  20.907  0.00  0.00    +0.000 A 
ATOM      6  C   UNL     1     -20.393 -40.112  20.007  0.00  0.00    +0.000 A 
ATOM      7  C   UNL     1     -20.748 -41.334  20.433  0.00  0.00    +0.000 A 
ATOM      8  C   UNL     1     -20.871 -41.573  21.747  0.00  0.00    +0.000 A 
ENDBRANCH   2   3
ENDBRANCH   1   2
ENDBRANCH  10   9
TORSDOF 4
ENDMDL
