MODEL 1
REMARK VINA RESULT:      -8.1      0.000      0.000
REMARK  Name = Fragment
REMARK  0 active torsions:
REMARK  status: ('A' for Active; 'I' for Inactive)
REMARK                            x       y       z     vdW  Elec       q    Type
REMARK                         _______ _______ _______ _____ _____    ______ ____
ROOT
ATOM      1  C   UNL     1       0.702 -56.609  19.812  0.00  0.00    +0.000 A 
ATOM      2  C   UNL     1       0.158 -57.833  19.866  0.00  0.00    +0.000 A 
ATOM      3  C   UNL     1       0.954 -58.906  19.925  0.00  0.00    +0.000 A 
ATOM      4  C   UNL     1       2.279 -58.719  19.943  0.00  0.00    +0.000 A 
ATOM      5  C   UNL     1       2.825 -57.488  19.890  0.00  0.00    +0.000 A 
ATOM      6  C   UNL     1       2.037 -56.390  19.802  0.00  0.00    +0.000 A 
ATOM      7  C   UNL     1       2.489 -55.111  19.742  0.00  0.00    +0.000 A 
ATOM      8  C   UNL     1       3.530 -54.616  19.019  0.00  0.00    +0.000 A 
ATOM      9  C   UNL     1       3.848 -53.309  19.155  0.00  0.00    +0.000 A 
ATOM     10  C   UNL     1       3.190 -52.468  19.961  0.00  0.00    +0.000 A 
ATOM     11  C   UNL     1       2.153 -52.940  20.655  0.00  0.00    +0.000 A 
ATOM     12  C   UNL     1       1.824 -54.233  20.532  0.00  0.00    +0.000 A 
ATOM     13  C   UNL     1       4.331 -57.425  19.997  0.00  0.00    +0.000 C 
ATOM     14  C   UNL     1       4.359 -55.295  17.927  0.00  0.00    +0.000 C 
ATOM     15  C   UNL     1       4.852 -57.613  18.605  0.00  0.00    +0.000 C 
ATOM     16  C   UNL     1       4.200 -56.768  17.545  0.00  0.00    +0.000 C 
ATOM     17  C   UNL     1       4.903 -57.089  16.245  0.00  0.00    +0.000 C 
ATOM     18  N   UNL     1       5.844 -57.920  16.092  0.00  0.00    +0.000 NA
ATOM     19  N   UNL     1       6.247 -58.532  17.083  0.00  0.00    +0.000 N 
ATOM     20  C   UNL     1       5.847 -58.449  18.283  0.00  0.00    +0.000 C 
ATOM     21  H   UNL     1       7.029 -59.194  16.857  0.00  0.00    +0.000 HD
ENDROOT
TORSDOF 0
ENDMDL
MODEL 2
REMARK VINA RESULT:      -7.3      4.039      6.681
REMARK  Name = Fragment
REMARK  0 active torsions:
REMARK  status: ('A' for Active; 'I' for Inactive)
REMARK                            x       y       z     vdW  Elec       q    Type
REMARK                         _______ _______ _______ _____ _____    ______ ____
ROOT
ATOM      1  C   UNL     1       5.935 -55.569  14.563  0.00  0.00    +0.000 A 
ATOM      2  C   UNL     1       6.750 -55.235  13.552  0.00  0.00    +0.000 A 
ATOM      3  C   UNL     1       6.229 -54.922  12.361  0.00  0.00    +0.000 A 
ATOM      4  C   UNL     1       4.899 -54.939  12.221  0.00  0.00    +0.000 A 
ATOM      5  C   UNL     1       4.079 -55.274  13.237  0.00  0.00    +0.000 A 
ATOM      6  C   UNL     1       4.588 -55.621  14.443  0.00  0.00    +0.000 A 
ATOM      7  C   UNL     1       3.850 -55.973  15.527  0.00  0.00    +0.000 A 
ATOM      8  C   UNL     1       2.758 -56.784  15.577  0.00  0.00    +0.000 A 
ATOM      9  C   UNL     1       2.133 -56.954  16.764  0.00  0.00    +0.000 A 
ATOM     10  C   UNL     1       2.532 -56.371  17.900  0.00  0.00    +0.000 A 
ATOM     11  C   UNL     1       3.616 -55.593  17.864  0.00  0.00    +0.000 A 
ATOM     12  C   UNL     1       4.248 -55.414  16.696  0.00  0.00    +0.000 A 
ATOM     13  C   UNL     1       2.598 -55.174  12.957  0.00  0.00    +0.000 C 
ATOM     14  C   UNL     1       2.169 -57.682  14.488  0.00  0.00    +0.000 C 
ATOM     15  C   UNL     1       2.206 -56.480  12.337  0.00  0.00    +0.000 C 
ATOM     16  C   UNL     1       2.692 -57.712  13.050  0.00  0.00    +0.000 C 
ATOM     17  C   UNL     1       2.150 -58.897  12.281  0.00  0.00    +0.000 C 
ATOM     18  N   UNL     1       1.442 -58.846  11.235  0.00  0.00    +0.000 NA
ATOM     19  N   UNL     1       1.146 -57.737  10.786  0.00  0.00    +0.000 N 
ATOM     20  C   UNL     1       1.456 -56.592  11.234  0.00  0.00    +0.000 C 
ATOM     21  H   UNL     1       0.556 -57.797   9.920  0.00  0.00    +0.000 HD
ENDROOT
TORSDOF 0
ENDMDL
MODEL 3
REMARK VINA RESULT:      -7.2     11.206     12.708
REMARK  Name = Fragment
REMARK  0 active torsions:
REMARK  status: ('A' for Active; 'I' for Inactive)
REMARK                            x       y       z     vdW  Elec       q    Type
REMARK                         _______ _______ _______ _____ _____    ______ ____
ROOT
ATOM      1  C   UNL     1      -1.383 -58.767   8.311  0.00  0.00    +0.000 A 
ATOM      2  C   UNL     1      -1.356 -59.994   7.771  0.00  0.00    +0.000 A 
ATOM      3  C   UNL     1      -2.505 -60.607   7.470  0.00  0.00    +0.000 A 
ATOM      4  C   UNL     1      -3.655 -59.963   7.706  0.00  0.00    +0.000 A 
ATOM      5  C   UNL     1      -3.682 -58.729   8.247  0.00  0.00    +0.000 A 
ATOM      6  C   UNL     1      -2.530 -58.102   8.585  0.00  0.00    +0.000 A 
ATOM      7  C   UNL     1      -2.451 -56.863   9.135  0.00  0.00    +0.000 A 
ATOM      8  C   UNL     1      -3.217 -56.328  10.123  0.00  0.00    +0.000 A 
ATOM      9  C   UNL     1      -3.005 -55.042  10.481  0.00  0.00    +0.000 A 
ATOM     10  C   UNL     1      -2.074 -54.261   9.919  0.00  0.00    +0.000 A 
ATOM     11  C   UNL     1      -1.302 -54.787   8.966  0.00  0.00    +0.000 A 
ATOM     12  C   UNL     1      -1.499 -56.061   8.599  0.00  0.00    +0.000 A 
ATOM     13  C   UNL     1      -5.046 -58.094   8.385  0.00  0.00    +0.000 C 
ATOM     14  C   UNL     1      -4.242 -57.011  11.031  0.00  0.00    +0.000 C 
ATOM     15  C   UNL     1      -5.596 -58.576   9.693  0.00  0.00    +0.000 C 
ATOM     16  C   UNL     1      -4.664 -58.473  10.869  0.00  0.00    +0.000 C 
ATOM     17  C   UNL     1      -5.434 -58.970  12.073  0.00  0.00    +0.000 C 
ATOM     18  N   UNL     1      -6.623 -59.401  12.071  0.00  0.00    +0.000 NA
ATOM     19  N   UNL     1      -7.234 -59.419  11.001  0.00  0.00    +0.000 N 
ATOM     20  C   UNL     1      -6.836 -59.054   9.854  0.00  0.00    +0.000 C 
ATOM     21  H   UNL     1      -8.211 -59.789  11.101  0.00  0.00    +0.000 HD
ENDROOT
TORSDOF 0
ENDMDL
MODEL 4
REMARK VINA RESULT:      -7.1     17.299     19.166
REMARK  Name = Fragment
REMARK  0 active torsions:
REMARK  status: ('A' for Active; 'I' for Inactive)
REMARK                            x       y       z     vdW  Elec       q    Type
REMARK                         _______ _______ _______ _____ _____    ______ ____
ROOT
ATOM      1  C   UNL     1       2.353 -46.001   0.271  0.00  0.00    +0.000 A 
ATOM      2  C   UNL     1       1.286 -46.608  -0.270  0.00  0.00    +0.000 A 
ATOM      3  C   UNL     1       0.477 -47.336   0.506  0.00  0.00    +0.000 A 
ATOM      4  C   UNL     1       0.754 -47.424   1.812  0.00  0.00    +0.000 A 
ATOM      5  C   UNL     1       1.825 -46.814   2.356  0.00  0.00    +0.000 A 
ATOM      6  C   UNL     1       2.672 -46.094   1.582  0.00  0.00    +0.000 A 
ATOM      7  C   UNL     1       3.775 -45.444   2.033  0.00  0.00    +0.000 A 
ATOM      8  C   UNL     1       4.708 -45.880   2.923  0.00  0.00    +0.000 A 
ATOM      9  C   UNL     1       5.704 -45.039   3.280  0.00  0.00    +0.000 A 
ATOM     10  C   UNL     1       5.829 -43.795   2.802  0.00  0.00    +0.000 A 
ATOM     11  C   UNL     1       4.932 -43.369   1.910  0.00  0.00    +0.000 A 
ATOM     12  C   UNL     1       3.939 -44.190   1.545  0.00  0.00    +0.000 A 
ATOM     13  C   UNL     1       1.969 -46.936   3.856  0.00  0.00    +0.000 C 
ATOM     14  C   UNL     1       4.900 -47.277   3.517  0.00  0.00    +0.000 C 
ATOM     15  C   UNL     1       2.699 -48.222   4.097  0.00  0.00    +0.000 C 
ATOM     16  C   UNL     1       3.934 -48.437   3.265  0.00  0.00    +0.000 C 
ATOM     17  C   UNL     1       4.522 -49.761   3.701  0.00  0.00    +0.000 C 
ATOM     18  N   UNL     1       4.047 -50.533   4.583  0.00  0.00    +0.000 NA
ATOM     19  N   UNL     1       3.012 -50.191   5.160  0.00  0.00    +0.000 N 
ATOM     20  C   UNL     1       2.326 -49.138   4.999  0.00  0.00    +0.000 C 
ATOM     21  H   UNL     1       2.699 -50.893   5.874  0.00  0.00    +0.000 HD
ENDROOT
TORSDOF 0
ENDMDL
MODEL 5
REMARK VINA RESULT:      -7.0     10.350     11.928
REMARK  Name = Fragment
REMARK  0 active torsions:
REMARK  status: ('A' for Active; 'I' for Inactive)
REMARK                            x       y       z     vdW  Elec       q    Type
REMARK                         _______ _______ _______ _____ _____    ______ ____
ROOT
ATOM      1  C   UNL     1      -1.840 -57.848   7.260  0.00  0.00    +0.000 A 
ATOM      2  C   UNL     1      -2.595 -58.708   6.563  0.00  0.00    +0.000 A 
ATOM      3  C   UNL     1      -3.886 -58.858   6.878  0.00  0.00    +0.000 A 
ATOM      4  C   UNL     1      -4.389 -58.125   7.879  0.00  0.00    +0.000 A 
ATOM      5  C   UNL     1      -3.629 -57.259   8.579  0.00  0.00    +0.000 A 
ATOM      6  C   UNL     1      -2.314 -57.113   8.293  0.00  0.00    +0.000 A 
ATOM      7  C   UNL     1      -1.467 -56.270   8.938  0.00  0.00    +0.000 A 
ATOM      8  C   UNL     1      -1.365 -56.034  10.275  0.00  0.00    +0.000 A 
ATOM      9  C   UNL     1      -0.485 -55.101  10.701  0.00  0.00    +0.000 A 
ATOM     10  C   UNL     1       0.301 -54.395   9.880  0.00  0.00    +0.000 A 
ATOM     11  C   UNL     1       0.225 -54.638   8.570  0.00  0.00    +0.000 A 
ATOM     12  C   UNL     1      -0.642 -55.561   8.130  0.00  0.00    +0.000 A 
ATOM     13  C   UNL     1      -4.349 -56.443   9.628  0.00  0.00    +0.000 C 
ATOM     14  C   UNL     1      -2.020 -56.777  11.441  0.00  0.00    +0.000 C 
ATOM     15  C   UNL     1      -4.363 -57.285  10.867  0.00  0.00    +0.000 C 
ATOM     16  C   UNL     1      -3.044 -57.898  11.253  0.00  0.00    +0.000 C 
ATOM     17  C   UNL     1      -3.283 -58.660  12.539  0.00  0.00    +0.000 C 
ATOM     18  N   UNL     1      -4.386 -58.764  13.149  0.00  0.00    +0.000 NA
ATOM     19  N   UNL     1      -5.371 -58.194  12.674  0.00  0.00    +0.000 N 
ATOM     20  C   UNL     1      -5.448 -57.487  11.625  0.00  0.00    +0.000 C 
ATOM     21  H   UNL     1      -6.236 -58.336  13.251  0.00  0.00    +0.000 HD
ENDROOT
TORSDOF 0
ENDMDL
MODEL 6
REMARK VINA RESULT:      -6.9     10.618     12.293
REMARK  Name = Fragment
REMARK  0 active torsions:
REMARK  status: ('A' for Active; 'I' for Inactive)
REMARK                            x       y       z     vdW  Elec       q    Type
REMARK                         _______ _______ _______ _____ _____    ______ ____
ROOT
ATOM      1  C   UNL     1      -4.075 -58.941   7.407  0.00  0.00    +0.000 A 
ATOM      2  C   UNL     1      -3.301 -59.000   6.314  0.00  0.00    +0.000 A 
ATOM      3  C   UNL     1      -1.998 -58.714   6.412  0.00  0.00    +0.000 A 
ATOM      4  C   UNL     1      -1.504 -58.391   7.613  0.00  0.00    +0.000 A 
ATOM      5  C   UNL     1      -2.282 -58.333   8.712  0.00  0.00    +0.000 A 
ATOM      6  C   UNL     1      -3.609 -58.591   8.628  0.00  0.00    +0.000 A 
ATOM      7  C   UNL     1      -4.475 -58.559   9.673  0.00  0.00    +0.000 A 
ATOM      8  C   UNL     1      -4.556 -57.641  10.674  0.00  0.00    +0.000 A 
ATOM      9  C   UNL     1      -5.464 -57.835  11.657  0.00  0.00    +0.000 A 
ATOM     10  C   UNL     1      -6.297 -58.882  11.699  0.00  0.00    +0.000 A 
ATOM     11  C   UNL     1      -6.240 -59.774  10.708  0.00  0.00    +0.000 A 
ATOM     12  C   UNL     1      -5.345 -59.596   9.725  0.00  0.00    +0.000 A 
ATOM     13  C   UNL     1      -1.574 -58.030  10.012  0.00  0.00    +0.000 C 
ATOM     14  C   UNL     1      -3.846 -56.293  10.812  0.00  0.00    +0.000 C 
ATOM     15  C   UNL     1      -1.498 -56.537  10.103  0.00  0.00    +0.000 C 
ATOM     16  C   UNL     1      -2.781 -55.801   9.829  0.00  0.00    +0.000 C 
ATOM     17  C   UNL     1      -2.483 -54.330  10.016  0.00  0.00    +0.000 C 
ATOM     18  N   UNL     1      -1.363 -53.830  10.327  0.00  0.00    +0.000 NA
ATOM     19  N   UNL     1      -0.414 -54.596  10.507  0.00  0.00    +0.000 N 
ATOM     20  C   UNL     1      -0.389 -55.860  10.427  0.00  0.00    +0.000 C 
ATOM     21  H   UNL     1       0.469 -54.089  10.763  0.00  0.00    +0.000 HD
ENDROOT
TORSDOF 0
ENDMDL
MODEL 7
REMARK VINA RESULT:      -6.9     29.127     31.319
REMARK  Name = Fragment
REMARK  0 active torsions:
REMARK  status: ('A' for Active; 'I' for Inactive)
REMARK                            x       y       z     vdW  Elec       q    Type
REMARK                         _______ _______ _______ _____ _____    ______ ____
ROOT
ATOM      1  C   UNL     1      11.877 -25.382  25.612  0.00  0.00    +0.000 A 
ATOM      2  C   UNL     1      12.539 -24.604  26.479  0.00  0.00    +0.000 A 
ATOM      3  C   UNL     1      13.875 -24.556  26.437  0.00  0.00    +0.000 A 
ATOM      4  C   UNL     1      14.511 -25.284  25.511  0.00  0.00    +0.000 A 
ATOM      5  C   UNL     1      13.845 -26.066  24.638  0.00  0.00    +0.000 A 
ATOM      6  C   UNL     1      12.494 -26.148  24.682  0.00  0.00    +0.000 A 
ATOM      7  C   UNL     1      11.734 -26.905  23.850  0.00  0.00    +0.000 A 
ATOM      8  C   UNL     1      11.956 -28.179  23.428  0.00  0.00    +0.000 A 
ATOM      9  C   UNL     1      11.093 -28.727  22.544  0.00  0.00    +0.000 A 
ATOM     10  C   UNL     1      10.022 -28.086  22.060  0.00  0.00    +0.000 A 
ATOM     11  C   UNL     1       9.784 -26.844  22.488  0.00  0.00    +0.000 A 
ATOM     12  C   UNL     1      10.630 -26.286  23.365  0.00  0.00    +0.000 A 
ATOM     13  C   UNL     1      14.688 -26.769  23.600  0.00  0.00    +0.000 C 
ATOM     14  C   UNL     1      12.997 -29.191  23.910  0.00  0.00    +0.000 C 
ATOM     15  C   UNL     1      15.153 -28.042  24.239  0.00  0.00    +0.000 C 
ATOM     16  C   UNL     1      14.089 -28.852  24.928  0.00  0.00    +0.000 C 
ATOM     17  C   UNL     1      14.769 -30.096  25.456  0.00  0.00    +0.000 C 
ATOM     18  N   UNL     1      15.997 -30.378  25.346  0.00  0.00    +0.000 NA
ATOM     19  N   UNL     1      16.725 -29.583  24.749  0.00  0.00    +0.000 N 
ATOM     20  C   UNL     1      16.417 -28.480  24.204  0.00  0.00    +0.000 C 
ATOM     21  H   UNL     1      17.723 -29.904  24.706  0.00  0.00    +0.000 HD
ENDROOT
TORSDOF 0
ENDMDL
MODEL 8
REMARK VINA RESULT:      -6.8      2.685      4.612
REMARK  Name = Fragment
REMARK  0 active torsions:
REMARK  status: ('A' for Active; 'I' for Inactive)
REMARK                            x       y       z     vdW  Elec       q    Type
REMARK                         _______ _______ _______ _____ _____    ______ ____
ROOT
ATOM      1  C   UNL     1       1.760 -57.784  14.623  0.00  0.00    +0.000 A 
ATOM      2  C   UNL     1       0.672 -58.414  15.088  0.00  0.00    +0.000 A 
ATOM      3  C   UNL     1       0.313 -58.254  16.366  0.00  0.00    +0.000 A 
ATOM      4  C   UNL     1       1.052 -57.452  17.142  0.00  0.00    +0.000 A 
ATOM      5  C   UNL     1       2.145 -56.817  16.673  0.00  0.00    +0.000 A 
ATOM      6  C   UNL     1       2.540 -56.988  15.389  0.00  0.00    +0.000 A 
ATOM      7  C   UNL     1       3.624 -56.396  14.824  0.00  0.00    +0.000 A 
ATOM      8  C   UNL     1       4.867 -56.232  15.351  0.00  0.00    +0.000 A 
ATOM      9  C   UNL     1       5.790 -55.554  14.633  0.00  0.00    +0.000 A 
ATOM     10  C   UNL     1       5.551 -55.036  13.422  0.00  0.00    +0.000 A 
ATOM     11  C   UNL     1       4.341 -55.215  12.888  0.00  0.00    +0.000 A 
ATOM     12  C   UNL     1       3.414 -55.885  13.587  0.00  0.00    +0.000 A 
ATOM     13  C   UNL     1       2.836 -55.883  17.640  0.00  0.00    +0.000 C 
ATOM     14  C   UNL     1       5.464 -56.827  16.628  0.00  0.00    +0.000 C 
ATOM     15  C   UNL     1       3.784 -56.733  18.429  0.00  0.00    +0.000 C 
ATOM     16  C   UNL     1       4.653 -57.660  17.625  0.00  0.00    +0.000 C 
ATOM     17  C   UNL     1       5.547 -58.378  18.612  0.00  0.00    +0.000 C 
ATOM     18  N   UNL     1       5.540 -58.229  19.868  0.00  0.00    +0.000 NA
ATOM     19  N   UNL     1       4.745 -57.422  20.355  0.00  0.00    +0.000 N 
ATOM     20  C   UNL     1       3.900 -56.687  19.762  0.00  0.00    +0.000 C 
ATOM     21  H   UNL     1       4.817 -57.367  21.400  0.00  0.00    +0.000 HD
ENDROOT
TORSDOF 0
ENDMDL
MODEL 9
REMARK VINA RESULT:      -6.6     46.115     49.123
REMARK  Name = Fragment
REMARK  0 active torsions:
REMARK  status: ('A' for Active; 'I' for Inactive)
REMARK                            x       y       z     vdW  Elec       q    Type
REMARK                         _______ _______ _______ _____ _____    ______ ____
ROOT
ATOM      1  C   UNL     1      -7.669 -26.162  56.728  0.00  0.00    +0.000 A 
ATOM      2  C   UNL     1      -7.830 -25.556  57.913  0.00  0.00    +0.000 A 
ATOM      3  C   UNL     1      -8.544 -24.428  57.984  0.00  0.00    +0.000 A 
ATOM      4  C   UNL     1      -9.091 -23.945  56.862  0.00  0.00    +0.000 A 
ATOM      5  C   UNL     1      -8.930 -24.556  55.671  0.00  0.00    +0.000 A 
ATOM      6  C   UNL     1      -8.188 -25.684  55.573  0.00  0.00    +0.000 A 
ATOM      7  C   UNL     1      -7.966 -26.371  54.423  0.00  0.00    +0.000 A 
ATOM      8  C   UNL     1      -7.669 -25.879  53.190  0.00  0.00    +0.000 A 
ATOM      9  C   UNL     1      -7.545 -26.747  52.161  0.00  0.00    +0.000 A 
ATOM     10  C   UNL     1      -7.693 -28.071  52.287  0.00  0.00    +0.000 A 
ATOM     11  C   UNL     1      -7.960 -28.563  53.499  0.00  0.00    +0.000 A 
ATOM     12  C   UNL     1      -8.086 -27.717  54.530  0.00  0.00    +0.000 A 
ATOM     13  C   UNL     1      -9.669 -23.941  54.505  0.00  0.00    +0.000 C 
ATOM     14  C   UNL     1      -7.306 -24.451  52.779  0.00  0.00    +0.000 C 
ATOM     15  C   UNL     1      -8.773 -22.867  53.968  0.00  0.00    +0.000 C 
ATOM     16  C   UNL     1      -7.339 -23.265  53.745  0.00  0.00    +0.000 C 
ATOM     17  C   UNL     1      -6.641 -22.053  53.170  0.00  0.00    +0.000 C 
ATOM     18  N   UNL     1      -7.168 -20.927  52.942  0.00  0.00    +0.000 NA
ATOM     19  N   UNL     1      -8.366 -20.782  53.197  0.00  0.00    +0.000 N 
ATOM     20  C   UNL     1      -9.182 -21.628  53.671  0.00  0.00    +0.000 C 
ATOM     21  H   UNL     1      -8.712 -19.818  52.972  0.00  0.00    +0.000 HD
ENDROOT
TORSDOF 0
ENDMDL
MODEL 10
REMARK VINA RESULT:      -6.4     10.302     11.957
REMARK  Name = Fragment
REMARK  0 active torsions:
REMARK  status: ('A' for Active; 'I' for Inactive)
REMARK                            x       y       z     vdW  Elec       q    Type
REMARK                         _______ _______ _______ _____ _____    ______ ____
ROOT
ATOM      1  C   UNL     1      -0.445 -56.877  11.232  0.00  0.00    +0.000 A 
ATOM      2  C   UNL     1       0.891 -56.812  11.321  0.00  0.00    +0.000 A 
ATOM      3  C   UNL     1       1.591 -56.240  10.336  0.00  0.00    +0.000 A 
ATOM      4  C   UNL     1       0.927 -55.732   9.291  0.00  0.00    +0.000 A 
ATOM      5  C   UNL     1      -0.417 -55.796   9.202  0.00  0.00    +0.000 A 
ATOM      6  C   UNL     1      -1.142 -56.396  10.176  0.00  0.00    +0.000 A 
ATOM      7  C   UNL     1      -2.495 -56.512  10.178  0.00  0.00    +0.000 A 
ATOM      8  C   UNL     1      -3.316 -56.841   9.145  0.00  0.00    +0.000 A 
ATOM      9  C   UNL     1      -4.651 -56.840   9.355  0.00  0.00    +0.000 A 
ATOM     10  C   UNL     1      -5.216 -56.537  10.530  0.00  0.00    +0.000 A 
ATOM     11  C   UNL     1      -4.415 -56.237  11.556  0.00  0.00    +0.000 A 
ATOM     12  C   UNL     1      -3.089 -56.234  11.365  0.00  0.00    +0.000 A 
ATOM     13  C   UNL     1      -1.036 -55.113   8.005  0.00  0.00    +0.000 C 
ATOM     14  C   UNL     1      -2.958 -57.363   7.753  0.00  0.00    +0.000 C 
ATOM     15  C   UNL     1      -1.010 -56.120   6.896  0.00  0.00    +0.000 C 
ATOM     16  C   UNL     1      -1.519 -57.491   7.248  0.00  0.00    +0.000 C 
ATOM     17  C   UNL     1      -1.440 -58.318   5.984  0.00  0.00    +0.000 C 
ATOM     18  N   UNL     1      -1.011 -57.924   4.861  0.00  0.00    +0.000 NA
ATOM     19  N   UNL     1      -0.624 -56.758   4.762  0.00  0.00    +0.000 N 
ATOM     20  C   UNL     1      -0.591 -55.856   5.652  0.00  0.00    +0.000 C 
ATOM     21  H   UNL     1      -0.291 -56.525   3.795  0.00  0.00    +0.000 HD
ENDROOT
TORSDOF 0
ENDMDL
MODEL 11
REMARK VINA RESULT:      -6.4     10.263     11.822
REMARK  Name = Fragment
REMARK  0 active torsions:
REMARK  status: ('A' for Active; 'I' for Inactive)
REMARK                            x       y       z     vdW  Elec       q    Type
REMARK                         _______ _______ _______ _____ _____    ______ ____
ROOT
ATOM      1  C   UNL     1      -2.953 -59.985  12.221  0.00  0.00    +0.000 A 
ATOM      2  C   UNL     1      -1.764 -59.961  12.841  0.00  0.00    +0.000 A 
ATOM      3  C   UNL     1      -1.046 -58.833  12.847  0.00  0.00    +0.000 A 
ATOM      4  C   UNL     1      -1.550 -57.751  12.241  0.00  0.00    +0.000 A 
ATOM      5  C   UNL     1      -2.746 -57.775  11.619  0.00  0.00    +0.000 A 
ATOM      6  C   UNL     1      -3.476 -58.915  11.579  0.00  0.00    +0.000 A 
ATOM      7  C   UNL     1      -4.687 -59.042  10.979  0.00  0.00    +0.000 A 
ATOM      8  C   UNL     1      -5.088 -58.555   9.773  0.00  0.00    +0.000 A 
ATOM      9  C   UNL     1      -6.370 -58.749   9.392  0.00  0.00    +0.000 A 
ATOM     10  C   UNL     1      -7.273 -59.401  10.134  0.00  0.00    +0.000 A 
ATOM     11  C   UNL     1      -6.881 -59.903  11.307  0.00  0.00    +0.000 A 
ATOM     12  C   UNL     1      -5.613 -59.720  11.701  0.00  0.00    +0.000 A 
ATOM     13  C   UNL     1      -3.224 -56.461  11.047  0.00  0.00    +0.000 C 
ATOM     14  C   UNL     1      -4.255 -57.907   8.666  0.00  0.00    +0.000 C 
ATOM     15  C   UNL     1      -2.621 -56.364   9.678  0.00  0.00    +0.000 C 
ATOM     16  C   UNL     1      -2.766 -57.586   8.814  0.00  0.00    +0.000 C 
ATOM     17  C   UNL     1      -2.130 -57.251   7.483  0.00  0.00    +0.000 C 
ATOM     18  N   UNL     1      -1.574 -56.157   7.177  0.00  0.00    +0.000 NA
ATOM     19  N   UNL     1      -1.544 -55.262   8.025  0.00  0.00    +0.000 N 
ATOM     20  C   UNL     1      -2.006 -55.273   9.205  0.00  0.00    +0.000 C 
ATOM     21  H   UNL     1      -1.067 -54.395   7.678  0.00  0.00    +0.000 HD
ENDROOT
TORSDOF 0
ENDMDL
MODEL 12
REMARK VINA RESULT:      -6.2     11.079     13.187
REMARK  Name = Fragment
REMARK  0 active torsions:
REMARK  status: ('A' for Active; 'I' for Inactive)
REMARK                            x       y       z     vdW  Elec       q    Type
REMARK                         _______ _______ _______ _____ _____    ______ ____
ROOT
ATOM      1  C   UNL     1      -0.552 -55.750   6.973  0.00  0.00    +0.000 A 
ATOM      2  C   UNL     1       0.191 -54.823   7.595  0.00  0.00    +0.000 A 
ATOM      3  C   UNL     1       0.337 -54.877   8.923  0.00  0.00    +0.000 A 
ATOM      4  C   UNL     1      -0.258 -55.872   9.592  0.00  0.00    +0.000 A 
ATOM      5  C   UNL     1      -1.004 -56.804   8.966  0.00  0.00    +0.000 A 
ATOM      6  C   UNL     1      -1.186 -56.751   7.625  0.00  0.00    +0.000 A 
ATOM      7  C   UNL     1      -1.917 -57.640   6.905  0.00  0.00    +0.000 A 
ATOM      8  C   UNL     1      -3.130 -58.178   7.207  0.00  0.00    +0.000 A 
ATOM      9  C   UNL     1      -3.657 -59.098   6.368  0.00  0.00    +0.000 A 
ATOM     10  C   UNL     1      -3.052 -59.509   5.247  0.00  0.00    +0.000 A 
ATOM     11  C   UNL     1      -1.874 -58.968   4.931  0.00  0.00    +0.000 A 
ATOM     12  C   UNL     1      -1.338 -58.054   5.752  0.00  0.00    +0.000 A 
ATOM     13  C   UNL     1      -1.550 -57.912   9.837  0.00  0.00    +0.000 C 
ATOM     14  C   UNL     1      -4.104 -57.801   8.325  0.00  0.00    +0.000 C 
ATOM     15  C   UNL     1      -2.839 -57.396  10.401  0.00  0.00    +0.000 C 
ATOM     16  C   UNL     1      -3.780 -56.770   9.409  0.00  0.00    +0.000 C 
ATOM     17  C   UNL     1      -5.015 -56.365  10.183  0.00  0.00    +0.000 C 
ATOM     18  N   UNL     1      -5.198 -56.514  11.426  0.00  0.00    +0.000 NA
ATOM     19  N   UNL     1      -4.303 -57.046  12.086  0.00  0.00    +0.000 N 
ATOM     20  C   UNL     1      -3.181 -57.485  11.692  0.00  0.00    +0.000 C 
ATOM     21  H   UNL     1      -4.548 -57.129  13.103  0.00  0.00    +0.000 HD
ENDROOT
TORSDOF 0
ENDMDL
MODEL 13
REMARK VINA RESULT:      -6.0     36.257     38.848
REMARK  Name = Fragment
REMARK  0 active torsions:
REMARK  status: ('A' for Active; 'I' for Inactive)
REMARK                            x       y       z     vdW  Elec       q    Type
REMARK                         _______ _______ _______ _____ _____    ______ ____
ROOT
ATOM      1  C   UNL     1     -21.211 -36.682  45.204  0.00  0.00    +0.000 A 
ATOM      2  C   UNL     1     -20.686 -37.399  46.207  0.00  0.00    +0.000 A 
ATOM      3  C   UNL     1     -19.775 -38.340  45.938  0.00  0.00    +0.000 A 
ATOM      4  C   UNL     1     -19.404 -38.526  44.666  0.00  0.00    +0.000 A 
ATOM      5  C   UNL     1     -19.931 -37.803  43.657  0.00  0.00    +0.000 A 
ATOM      6  C   UNL     1     -20.875 -36.865  43.906  0.00  0.00    +0.000 A 
ATOM      7  C   UNL     1     -21.467 -36.088  42.962  0.00  0.00    +0.000 A 
ATOM      8  C   UNL     1     -21.927 -36.453  41.735  0.00  0.00    +0.000 A 
ATOM      9  C   UNL     1     -22.432 -35.497  40.923  0.00  0.00    +0.000 A 
ATOM     10  C   UNL     1     -22.511 -34.205  41.262  0.00  0.00    +0.000 A 
ATOM     11  C   UNL     1     -22.084 -33.843  42.474  0.00  0.00    +0.000 A 
ATOM     12  C   UNL     1     -21.581 -34.778  43.291  0.00  0.00    +0.000 A 
ATOM     13  C   UNL     1     -19.362 -38.067  42.282  0.00  0.00    +0.000 C 
ATOM     14  C   UNL     1     -22.096 -37.853  41.142  0.00  0.00    +0.000 C 
ATOM     15  C   UNL     1     -20.136 -39.226  41.731  0.00  0.00    +0.000 C 
ATOM     16  C   UNL     1     -21.632 -39.127  41.851  0.00  0.00    +0.000 C 
ATOM     17  C   UNL     1     -22.199 -40.369  41.200  0.00  0.00    +0.000 C 
ATOM     18  N   UNL     1     -21.532 -41.307  40.676  0.00  0.00    +0.000 NA
ATOM     19  N   UNL     1     -20.302 -41.218  40.677  0.00  0.00    +0.000 N 
ATOM     20  C   UNL     1     -19.575 -40.289  41.141  0.00  0.00    +0.000 C 
ATOM     21  H   UNL     1     -19.838 -42.040  40.218  0.00  0.00    +0.000 HD
ENDROOT
TORSDOF 0
ENDMDL
MODEL 14
REMARK VINA RESULT:      -5.9     11.567     13.613
REMARK  Name = Fragment
REMARK  0 active torsions:
REMARK  status: ('A' for Active; 'I' for Inactive)
REMARK                            x       y       z     vdW  Elec       q    Type
REMARK                         _______ _______ _______ _____ _____    ______ ____
ROOT
ATOM      1  C   UNL     1       1.762 -56.214   7.272  0.00  0.00    +0.000 A 
ATOM      2  C   UNL     1       2.630 -56.560   6.310  0.00  0.00    +0.000 A 
ATOM      3  C   UNL     1       2.207 -56.660   5.045  0.00  0.00    +0.000 A 
ATOM      4  C   UNL     1       0.923 -56.393   4.777  0.00  0.00    +0.000 A 
ATOM      5  C   UNL     1       0.052 -56.043   5.744  0.00  0.00    +0.000 A 
ATOM      6  C   UNL     1       0.453 -55.964   7.035  0.00  0.00    +0.000 A 
ATOM      7  C   UNL     1      -0.346 -55.622   8.078  0.00  0.00    +0.000 A 
ATOM      8  C   UNL     1      -1.619 -56.026   8.334  0.00  0.00    +0.000 A 
ATOM      9  C   UNL     1      -2.257 -55.511   9.409  0.00  0.00    +0.000 A 
ATOM     10  C   UNL     1      -1.702 -54.625  10.244  0.00  0.00    +0.000 A 
ATOM     11  C   UNL     1      -0.444 -54.243  10.014  0.00  0.00    +0.000 A 
ATOM     12  C   UNL     1       0.202 -54.744   8.953  0.00  0.00    +0.000 A 
ATOM     13  C   UNL     1      -1.346 -55.696   5.284  0.00  0.00    +0.000 C 
ATOM     14  C   UNL     1      -2.445 -57.117   7.649  0.00  0.00    +0.000 C 
ATOM     15  C   UNL     1      -2.091 -56.994   5.213  0.00  0.00    +0.000 C 
ATOM     16  C   UNL     1      -1.962 -57.886   6.417  0.00  0.00    +0.000 C 
ATOM     17  C   UNL     1      -2.820 -59.103   6.145  0.00  0.00    +0.000 C 
ATOM     18  N   UNL     1      -3.493 -59.320   5.097  0.00  0.00    +0.000 NA
ATOM     19  N   UNL     1      -3.472 -58.471   4.204  0.00  0.00    +0.000 N 
ATOM     20  C   UNL     1      -2.852 -57.366   4.177  0.00  0.00    +0.000 C 
ATOM     21  H   UNL     1      -4.063 -58.738   3.379  0.00  0.00    +0.000 HD
ENDROOT
TORSDOF 0
ENDMDL
MODEL 15
REMARK VINA RESULT:      -5.9     45.620     47.786
REMARK  Name = Fragment
REMARK  0 active torsions:
REMARK  status: ('A' for Active; 'I' for Inactive)
REMARK                            x       y       z     vdW  Elec       q    Type
REMARK                         _______ _______ _______ _____ _____    ______ ____
ROOT
ATOM      1  C   UNL     1      -5.217 -39.153  62.823  0.00  0.00    +0.000 A 
ATOM      2  C   UNL     1      -6.091 -38.160  63.041  0.00  0.00    +0.000 A 
ATOM      3  C   UNL     1      -5.726 -36.897  62.799  0.00  0.00    +0.000 A 
ATOM      4  C   UNL     1      -4.495 -36.665  62.329  0.00  0.00    +0.000 A 
ATOM      5  C   UNL     1      -3.617 -37.664  62.109  0.00  0.00    +0.000 A 
ATOM      6  C   UNL     1      -3.957 -38.948  62.373  0.00  0.00    +0.000 A 
ATOM      7  C   UNL     1      -3.147 -40.021  62.187  0.00  0.00    +0.000 A 
ATOM      8  C   UNL     1      -1.825 -40.144  62.486  0.00  0.00    +0.000 A 
ATOM      9  C   UNL     1      -1.192 -41.292  62.158  0.00  0.00    +0.000 A 
ATOM     10  C   UNL     1      -1.796 -42.324  61.556  0.00  0.00    +0.000 A 
ATOM     11  C   UNL     1      -3.098 -42.221  61.282  0.00  0.00    +0.000 A 
ATOM     12  C   UNL     1      -3.741 -41.089  61.601  0.00  0.00    +0.000 A 
ATOM     13  C   UNL     1      -2.292 -37.262  61.505  0.00  0.00    +0.000 C 
ATOM     14  C   UNL     1      -0.923 -39.204  63.287  0.00  0.00    +0.000 C 
ATOM     15  C   UNL     1      -1.414 -36.873  62.655  0.00  0.00    +0.000 C 
ATOM     16  C   UNL     1      -1.383 -37.839  63.807  0.00  0.00    +0.000 C 
ATOM     17  C   UNL     1      -0.414 -37.270  64.820  0.00  0.00    +0.000 C 
ATOM     18  N   UNL     1       0.224 -36.184  64.713  0.00  0.00    +0.000 NA
ATOM     19  N   UNL     1       0.064 -35.513  63.691  0.00  0.00    +0.000 N 
ATOM     20  C   UNL     1      -0.672 -35.759  62.689  0.00  0.00    +0.000 C 
ATOM     21  H   UNL     1       0.637 -34.634  63.692  0.00  0.00    +0.000 HD
ENDROOT
TORSDOF 0
ENDMDL
MODEL 16
REMARK VINA RESULT:      -5.8     24.331     25.430
REMARK  Name = Fragment
REMARK  0 active torsions:
REMARK  status: ('A' for Active; 'I' for Inactive)
REMARK                            x       y       z     vdW  Elec       q    Type
REMARK                         _______ _______ _______ _____ _____    ______ ____
ROOT
ATOM      1  C   UNL     1     -10.151 -47.239  -3.004  0.00  0.00    +0.000 A 
ATOM      2  C   UNL     1     -11.376 -47.485  -3.492  0.00  0.00    +0.000 A 
ATOM      3  C   UNL     1     -11.986 -48.636  -3.193  0.00  0.00    +0.000 A 
ATOM      4  C   UNL     1     -11.354 -49.507  -2.398  0.00  0.00    +0.000 A 
ATOM      5  C   UNL     1     -10.123 -49.260  -1.907  0.00  0.00    +0.000 A 
ATOM      6  C   UNL     1      -9.477 -48.112  -2.220  0.00  0.00    +0.000 A 
ATOM      7  C   UNL     1      -8.240 -47.771  -1.778  0.00  0.00    +0.000 A 
ATOM      8  C   UNL     1      -7.131 -48.555  -1.683  0.00  0.00    +0.000 A 
ATOM      9  C   UNL     1      -6.007 -48.023  -1.154  0.00  0.00    +0.000 A 
ATOM     10  C   UNL     1      -5.919 -46.760  -0.720  0.00  0.00    +0.000 A 
ATOM     11  C   UNL     1      -6.995 -45.977  -0.833  0.00  0.00    +0.000 A 
ATOM     12  C   UNL     1      -8.118 -46.489  -1.355  0.00  0.00    +0.000 A 
ATOM     13  C   UNL     1      -9.565 -50.298  -0.961  0.00  0.00    +0.000 C 
ATOM     14  C   UNL     1      -6.896 -49.967  -2.220  0.00  0.00    +0.000 C 
ATOM     15  C   UNL     1      -8.909 -51.333  -1.823  0.00  0.00    +0.000 C 
ATOM     16  C   UNL     1      -7.989 -50.804  -2.889  0.00  0.00    +0.000 C 
ATOM     17  C   UNL     1      -7.415 -52.011  -3.599  0.00  0.00    +0.000 C 
ATOM     18  N   UNL     1      -7.681 -53.221  -3.346  0.00  0.00    +0.000 NA
ATOM     19  N   UNL     1      -8.472 -53.464  -2.432  0.00  0.00    +0.000 N 
ATOM     20  C   UNL     1      -9.084 -52.652  -1.676  0.00  0.00    +0.000 C 
ATOM     21  H   UNL     1      -8.625 -54.493  -2.296  0.00  0.00    +0.000 HD
ENDROOT
TORSDOF 0
ENDMDL
MODEL 17
REMARK VINA RESULT:      -5.7     29.486     31.634
REMARK  Name = Fragment
REMARK  0 active torsions:
REMARK  status: ('A' for Active; 'I' for Inactive)
REMARK                            x       y       z     vdW  Elec       q    Type
REMARK                         _______ _______ _______ _____ _____    ______ ____
ROOT
ATOM      1  C   UNL     1     -25.466 -40.201  20.262  0.00  0.00    +0.000 A 
ATOM      2  C   UNL     1     -25.644 -41.448  20.723  0.00  0.00    +0.000 A 
ATOM      3  C   UNL     1     -24.815 -41.932  21.654  0.00  0.00    +0.000 A 
ATOM      4  C   UNL     1     -23.835 -41.142  22.110  0.00  0.00    +0.000 A 
ATOM      5  C   UNL     1     -23.658 -39.888  21.648  0.00  0.00    +0.000 A 
ATOM      6  C   UNL     1     -24.469 -39.390  20.686  0.00  0.00    +0.000 A 
ATOM      7  C   UNL     1     -24.372 -38.144  20.155  0.00  0.00    +0.000 A 
ATOM      8  C   UNL     1     -23.250 -37.471  19.780  0.00  0.00    +0.000 A 
ATOM      9  C   UNL     1     -23.378 -36.204  19.327  0.00  0.00    +0.000 A 
ATOM     10  C   UNL     1     -24.552 -35.571  19.220  0.00  0.00    +0.000 A 
ATOM     11  C   UNL     1     -25.660 -36.233  19.563  0.00  0.00    +0.000 A 
ATOM     12  C   UNL     1     -25.551 -37.490  20.014  0.00  0.00    +0.000 A 
ATOM     13  C   UNL     1     -22.561 -39.086  22.310  0.00  0.00    +0.000 C 
ATOM     14  C   UNL     1     -21.813 -37.978  19.658  0.00  0.00    +0.000 C 
ATOM     15  C   UNL     1     -21.299 -39.433  21.580  0.00  0.00    +0.000 C 
ATOM     16  C   UNL     1     -21.380 -39.384  20.079  0.00  0.00    +0.000 C 
ATOM     17  C   UNL     1     -19.999 -39.724  19.562  0.00  0.00    +0.000 C 
ATOM     18  N   UNL     1     -18.988 -40.008  20.267  0.00  0.00    +0.000 NA
ATOM     19  N   UNL     1     -19.114 -40.005  21.493  0.00  0.00    +0.000 N 
ATOM     20  C   UNL     1     -20.146 -39.748  22.183  0.00  0.00    +0.000 C 
ATOM     21  H   UNL     1     -18.223 -40.248  21.990  0.00  0.00    +0.000 HD
ENDROOT
TORSDOF 0
ENDMDL
MODEL 18
REMARK VINA RESULT:      -5.5     45.338     47.299
REMARK  Name = Fragment
REMARK  0 active torsions:
REMARK  status: ('A' for Active; 'I' for Inactive)
REMARK                            x       y       z     vdW  Elec       q    Type
REMARK                         _______ _______ _______ _____ _____    ______ ____
ROOT
ATOM      1  C   UNL     1      -3.980 -37.460  61.334  0.00  0.00    +0.000 A 
ATOM      2  C   UNL     1      -5.118 -37.755  60.689  0.00  0.00    +0.000 A 
ATOM      3  C   UNL     1      -5.795 -38.859  61.018  0.00  0.00    +0.000 A 
ATOM      4  C   UNL     1      -5.318 -39.633  62.000  0.00  0.00    +0.000 A 
ATOM      5  C   UNL     1      -4.175 -39.336  62.649  0.00  0.00    +0.000 A 
ATOM      6  C   UNL     1      -3.460 -38.237  62.312  0.00  0.00    +0.000 A 
ATOM      7  C   UNL     1      -2.299 -37.853  62.903  0.00  0.00    +0.000 A 
ATOM      8  C   UNL     1      -1.239 -38.625  63.265  0.00  0.00    +0.000 A 
ATOM      9  C   UNL     1      -0.200 -38.040  63.901  0.00  0.00    +0.000 A 
ATOM     10  C   UNL     1      -0.151 -36.735  64.193  0.00  0.00    +0.000 A 
ATOM     11  C   UNL     1      -1.176 -35.966  63.820  0.00  0.00    +0.000 A 
ATOM     12  C   UNL     1      -2.214 -36.530  63.188  0.00  0.00    +0.000 A 
ATOM     13  C   UNL     1      -3.798 -40.257  63.786  0.00  0.00    +0.000 C 
ATOM     14  C   UNL     1      -0.956 -40.093  62.940  0.00  0.00    +0.000 C 
ATOM     15  C   UNL     1      -3.039 -41.391  63.166  0.00  0.00    +0.000 C 
ATOM     16  C   UNL     1      -1.950 -40.997  62.207  0.00  0.00    +0.000 C 
ATOM     17  C   UNL     1      -1.300 -42.283  61.742  0.00  0.00    +0.000 C 
ATOM     18  N   UNL     1      -1.632 -43.453  62.089  0.00  0.00    +0.000 NA
ATOM     19  N   UNL     1      -2.563 -43.582  62.887  0.00  0.00    +0.000 N 
ATOM     20  C   UNL     1      -3.267 -42.682  63.435  0.00  0.00    +0.000 C 
ATOM     21  H   UNL     1      -2.761 -44.586  63.116  0.00  0.00    +0.000 HD
ENDROOT
TORSDOF 0
ENDMDL
MODEL 19
REMARK VINA RESULT:      -5.4     14.946     17.192
REMARK  Name = Fragment
REMARK  0 active torsions:
REMARK  status: ('A' for Active; 'I' for Inactive)
REMARK                            x       y       z     vdW  Elec       q    Type
REMARK                         _______ _______ _______ _____ _____    ______ ____
ROOT
ATOM      1  C   UNL     1       0.257 -53.089   0.825  0.00  0.00    +0.000 A 
ATOM      2  C   UNL     1      -0.540 -52.972  -0.246  0.00  0.00    +0.000 A 
ATOM      3  C   UNL     1      -1.843 -53.251  -0.133  0.00  0.00    +0.000 A 
ATOM      4  C   UNL     1      -2.314 -53.629   1.062  0.00  0.00    +0.000 A 
ATOM      5  C   UNL     1      -1.512 -53.747   2.139  0.00  0.00    +0.000 A 
ATOM      6  C   UNL     1      -0.185 -53.494   2.038  0.00  0.00    +0.000 A 
ATOM      7  C   UNL     1       0.703 -53.584   3.061  0.00  0.00    +0.000 A 
ATOM      8  C   UNL     1       0.799 -54.550   4.014  0.00  0.00    +0.000 A 
ATOM      9  C   UNL     1       1.729 -54.411   4.984  0.00  0.00    +0.000 A 
ATOM     10  C   UNL     1       2.572 -53.374   5.059  0.00  0.00    +0.000 A 
ATOM     11  C   UNL     1       2.501 -52.434   4.113  0.00  0.00    +0.000 A 
ATOM     12  C   UNL     1       1.584 -52.557   3.144  0.00  0.00    +0.000 A 
ATOM     13  C   UNL     1      -2.194 -54.107   3.438  0.00  0.00    +0.000 C 
ATOM     14  C   UNL     1       0.080 -55.898   4.102  0.00  0.00    +0.000 C 
ATOM     15  C   UNL     1      -2.281 -55.602   3.459  0.00  0.00    +0.000 C 
ATOM     16  C   UNL     1      -1.011 -56.333   3.120  0.00  0.00    +0.000 C 
ATOM     17  C   UNL     1      -1.318 -57.810   3.243  0.00  0.00    +0.000 C 
ATOM     18  N   UNL     1      -2.434 -58.315   3.553  0.00  0.00    +0.000 NA
ATOM     19  N   UNL     1      -3.373 -57.552   3.792  0.00  0.00    +0.000 N 
ATOM     20  C   UNL     1      -3.388 -56.285   3.773  0.00  0.00    +0.000 C 
ATOM     21  H   UNL     1      -4.254 -58.064   4.043  0.00  0.00    +0.000 HD
ENDROOT
TORSDOF 0
ENDMDL
MODEL 20
REMARK VINA RESULT:      -5.3     47.148     50.121
REMARK  Name = Fragment
REMARK  0 active torsions:
REMARK  status: ('A' for Active; 'I' for Inactive)
REMARK                            x       y       z     vdW  Elec       q    Type
REMARK                         _______ _______ _______ _____ _____    ______ ____
ROOT
ATOM      1  C   UNL     1      -8.029 -26.880  56.523  0.00  0.00    +0.000 A 
ATOM      2  C   UNL     1      -8.299 -27.053  57.824  0.00  0.00    +0.000 A 
ATOM      3  C   UNL     1      -9.060 -26.158  58.464  0.00  0.00    +0.000 A 
ATOM      4  C   UNL     1      -9.541 -25.118  57.774  0.00  0.00    +0.000 A 
ATOM      5  C   UNL     1      -9.270 -24.946  56.464  0.00  0.00    +0.000 A 
ATOM      6  C   UNL     1      -8.480 -25.826  55.805  0.00  0.00    +0.000 A 
ATOM      7  C   UNL     1      -8.149 -25.740  54.491  0.00  0.00    +0.000 A 
ATOM      8  C   UNL     1      -7.782 -24.637  53.783  0.00  0.00    +0.000 A 
ATOM      9  C   UNL     1      -7.550 -24.767  52.458  0.00  0.00    +0.000 A 
ATOM     10  C   UNL     1      -7.656 -25.927  51.798  0.00  0.00    +0.000 A 
ATOM     11  C   UNL     1      -7.992 -27.018  52.491  0.00  0.00    +0.000 A 
ATOM     12  C   UNL     1      -8.225 -26.906  53.806  0.00  0.00    +0.000 A 
ATOM     13  C   UNL     1      -9.945 -23.770  55.796  0.00  0.00    +0.000 C 
ATOM     14  C   UNL     1      -7.445 -23.232  54.285  0.00  0.00    +0.000 C 
ATOM     15  C   UNL     1      -9.054 -22.590  56.039  0.00  0.00    +0.000 C 
ATOM     16  C   UNL     1      -7.594 -22.805  55.748  0.00  0.00    +0.000 C 
ATOM     17  C   UNL     1      -6.902 -21.487  56.020  0.00  0.00    +0.000 C 
ATOM     18  N   UNL     1      -7.455 -20.426  56.429  0.00  0.00    +0.000 NA
ATOM     19  N   UNL     1      -8.673 -20.440  56.622  0.00  0.00    +0.000 N 
ATOM     20  C   UNL     1      -9.488 -21.397  56.465  0.00  0.00    +0.000 C 
ATOM     21  H   UNL     1      -9.039 -19.515  56.955  0.00  0.00    +0.000 HD
ENDROOT
TORSDOF 0
ENDMDL
