MODEL 1
REMARK VINA RESULT:     -11.2      0.000      0.000
REMARK  Name = Fragment
REMARK  5 active torsions:
REMARK  status: ('A' for Active; 'I' for Inactive)
REMARK    1  A    between atoms: C_17  and  C_35
REMARK    2  A    between atoms: N_19  and  C_22
REMARK    3  A    between atoms: C_22  and  C_23
REMARK    4  A    between atoms: C_24  and  C_25
REMARK    5  A    between atoms: C_28  and  C_31
REMARK                            x       y       z     vdW  Elec       q    Type
REMARK                         _______ _______ _______ _____ _____    ______ ____
ROOT
ATOM      1  C   UNL     1     -19.785 -42.071  27.259  0.00  0.00    +0.000 A 
ATOM      2  C   UNL     1     -20.129 -43.354  27.062  0.00  0.00    +0.000 A 
ATOM      3  C   UNL     1     -21.255 -43.661  26.398  0.00  0.00    +0.000 A 
ATOM      4  C   UNL     1     -22.035 -42.672  25.936  0.00  0.00    +0.000 A 
ATOM      5  C   UNL     1     -21.692 -41.388  26.132  0.00  0.00    +0.000 A 
ATOM      6  C   UNL     1     -20.565 -41.081  26.793  0.00  0.00    +0.000 A 
ATOM      7  C   UNL     1     -23.321 -42.869  25.162  0.00  0.00    +0.000 C 
ATOM      8  C   UNL     1     -24.344 -42.036  25.910  0.00  0.00    +0.000 A 
ATOM      9  C   UNL     1     -24.014 -40.744  26.111  0.00  0.00    +0.000 A 
ATOM     10  C   UNL     1     -22.653 -40.378  25.539  0.00  0.00    +0.000 C 
ATOM     11  C   UNL     1     -23.125 -42.173  23.801  0.00  0.00    +0.000 C 
ATOM     12  C   UNL     1     -22.719 -40.681  24.027  0.00  0.00    +0.000 C 
ATOM     13  C   UNL     1     -25.514 -42.522  26.348  0.00  0.00    +0.000 A 
ATOM     14  C   UNL     1     -26.356 -41.705  26.996  0.00  0.00    +0.000 A 
ATOM     15  C   UNL     1     -21.369 -40.565  23.334  0.00  0.00    +0.000 C 
ATOM     16  C   UNL     1     -26.024 -40.420  27.195  0.00  0.00    +0.000 A 
ATOM     17  C   UNL     1     -24.854 -39.912  26.761  0.00  0.00    +0.000 A 
ATOM     18  C   UNL     1     -21.968 -42.746  22.997  0.00  0.00    +0.000 C 
ATOM     19  N   UNL     1     -21.019 -41.777  22.794  0.00  0.00    +0.000 N 
ATOM     20  O   UNL     1     -20.698 -39.564  23.274  0.00  0.00    +0.000 OA
ATOM     21  O   UNL     1     -21.885 -43.884  22.602  0.00  0.00    +0.000 OA
ENDROOT
BRANCH  17  35
ATOM     35  C   UNL     1     -24.517 -38.457  26.994  0.00  0.00    +0.000 C 
ATOM     36  F   UNL     1     -25.556 -37.819  27.514  0.00  0.00    +0.000 F 
ATOM     37  F   UNL     1     -24.165 -37.805  25.897  0.00  0.00    +0.000 F 
ATOM     38  F   UNL     1     -23.515 -38.348  27.854  0.00  0.00    +0.000 F 
ENDBRANCH  17  35
BRANCH  19  22
ATOM     22  C   UNL     1     -19.785 -42.006  22.054  0.00  0.00    +0.000 C 
BRANCH  22  23
ATOM     23  C   UNL     1     -18.797 -42.722  22.944  0.00  0.00    +0.000 C 
ATOM     24  C   UNL     1     -17.667 -42.157  23.401  0.00  0.00    +0.000 C 
BRANCH  24  25
ATOM     25  C   UNL     1     -16.735 -42.711  24.205  0.00  0.00    +0.000 A 
ATOM     26  C   UNL     1     -16.819 -42.519  25.537  0.00  0.00    +0.000 A 
ATOM     27  C   UNL     1     -15.923 -43.045  26.386  0.00  0.00    +0.000 A 
ATOM     28  C   UNL     1     -14.882 -43.769  25.942  0.00  0.00    +0.000 A 
ATOM     29  C   UNL     1     -14.812 -43.994  24.619  0.00  0.00    +0.000 A 
ATOM     30  C   UNL     1     -15.710 -43.468  23.770  0.00  0.00    +0.000 A 
BRANCH  28  31
ATOM     31  C   UNL     1     -13.905 -44.411  26.900  0.00  0.00    +0.000 C 
ATOM     32  F   UNL     1     -12.797 -43.701  27.052  0.00  0.00    +0.000 F 
ATOM     33  F   UNL     1     -14.424 -44.605  28.103  0.00  0.00    +0.000 F 
ATOM     34  F   UNL     1     -13.548 -45.597  26.432  0.00  0.00    +0.000 F 
ENDBRANCH  28  31
ENDBRANCH  24  25
ENDBRANCH  22  23
ENDBRANCH  19  22
TORSDOF 5
ENDMDL
MODEL 2
REMARK VINA RESULT:     -10.6      4.034      8.206
REMARK  Name = Fragment
REMARK  5 active torsions:
REMARK  status: ('A' for Active; 'I' for Inactive)
REMARK    1  A    between atoms: C_17  and  C_35
REMARK    2  A    between atoms: N_19  and  C_22
REMARK    3  A    between atoms: C_22  and  C_23
REMARK    4  A    between atoms: C_24  and  C_25
REMARK    5  A    between atoms: C_28  and  C_31
REMARK                            x       y       z     vdW  Elec       q    Type
REMARK                         _______ _______ _______ _____ _____    ______ ____
ROOT
ATOM      1  C   UNL     1     -21.557 -45.581  25.391  0.00  0.00    +0.000 A 
ATOM      2  C   UNL     1     -21.769 -45.414  26.708  0.00  0.00    +0.000 A 
ATOM      3  C   UNL     1     -21.211 -44.381  27.359  0.00  0.00    +0.000 A 
ATOM      4  C   UNL     1     -20.438 -43.518  26.682  0.00  0.00    +0.000 A 
ATOM      5  C   UNL     1     -20.226 -43.684  25.366  0.00  0.00    +0.000 A 
ATOM      6  C   UNL     1     -20.786 -44.715  24.714  0.00  0.00    +0.000 A 
ATOM      7  C   UNL     1     -19.758 -42.306  27.282  0.00  0.00    +0.000 C 
ATOM      8  C   UNL     1     -18.303 -42.448  26.876  0.00  0.00    +0.000 A 
ATOM      9  C   UNL     1     -18.076 -42.612  25.557  0.00  0.00    +0.000 A 
ATOM     10  C   UNL     1     -19.351 -42.625  24.727  0.00  0.00    +0.000 C 
ATOM     11  C   UNL     1     -20.291 -41.080  26.515  0.00  0.00    +0.000 C 
ATOM     12  C   UNL     1     -20.052 -41.274  24.983  0.00  0.00    +0.000 C 
ATOM     13  C   UNL     1     -17.286 -42.410  27.749  0.00  0.00    +0.000 A 
ATOM     14  C   UNL     1     -16.033 -42.540  27.292  0.00  0.00    +0.000 A 
ATOM     15  C   UNL     1     -21.450 -41.203  24.388  0.00  0.00    +0.000 C 
ATOM     16  C   UNL     1     -15.810 -42.703  25.979  0.00  0.00    +0.000 A 
ATOM     17  C   UNL     1     -16.819 -42.743  25.087  0.00  0.00    +0.000 A 
ATOM     18  C   UNL     1     -21.798 -40.912  26.629  0.00  0.00    +0.000 C 
ATOM     19  N   UNL     1     -22.371 -41.011  25.387  0.00  0.00    +0.000 N 
ATOM     20  O   UNL     1     -21.717 -41.310  23.215  0.00  0.00    +0.000 OA
ATOM     21  O   UNL     1     -22.407 -40.729  27.656  0.00  0.00    +0.000 OA
ENDROOT
BRANCH  17  35
ATOM     35  C   UNL     1     -16.531 -42.919  23.613  0.00  0.00    +0.000 C 
ATOM     36  F   UNL     1     -16.282 -41.746  23.047  0.00  0.00    +0.000 F 
ATOM     37  F   UNL     1     -17.521 -43.479  22.935  0.00  0.00    +0.000 F 
ATOM     38  F   UNL     1     -15.459 -43.677  23.439  0.00  0.00    +0.000 F 
ENDBRANCH  17  35
BRANCH  19  22
ATOM     22  C   UNL     1     -23.805 -40.892  25.153  0.00  0.00    +0.000 C 
BRANCH  22  23
ATOM     23  C   UNL     1     -24.414 -42.271  25.084  0.00  0.00    +0.000 C 
ATOM     24  C   UNL     1     -24.497 -43.098  26.140  0.00  0.00    +0.000 C 
BRANCH  24  25
ATOM     25  C   UNL     1     -25.031 -44.338  26.176  0.00  0.00    +0.000 A 
ATOM     26  C   UNL     1     -25.390 -44.862  27.366  0.00  0.00    +0.000 A 
ATOM     27  C   UNL     1     -25.926 -46.088  27.466  0.00  0.00    +0.000 A 
ATOM     28  C   UNL     1     -26.106 -46.862  26.382  0.00  0.00    +0.000 A 
ATOM     29  C   UNL     1     -25.783 -46.331  25.190  0.00  0.00    +0.000 A 
ATOM     30  C   UNL     1     -25.247 -45.104  25.091  0.00  0.00    +0.000 A 
BRANCH  28  31
ATOM     31  C   UNL     1     -26.763 -48.219  26.485  0.00  0.00    +0.000 C 
ATOM     32  F   UNL     1     -27.811 -48.219  27.295  0.00  0.00    +0.000 F 
ATOM     33  F   UNL     1     -27.165 -48.680  25.311  0.00  0.00    +0.000 F 
ATOM     34  F   UNL     1     -25.893 -49.091  26.971  0.00  0.00    +0.000 F 
ENDBRANCH  28  31
ENDBRANCH  24  25
ENDBRANCH  22  23
ENDBRANCH  19  22
TORSDOF 5
ENDMDL
MODEL 3
REMARK VINA RESULT:     -10.4      5.316      9.233
REMARK  Name = Fragment
REMARK  5 active torsions:
REMARK  status: ('A' for Active; 'I' for Inactive)
REMARK    1  A    between atoms: C_17  and  C_35
REMARK    2  A    between atoms: N_19  and  C_22
REMARK    3  A    between atoms: C_22  and  C_23
REMARK    4  A    between atoms: C_24  and  C_25
REMARK    5  A    between atoms: C_28  and  C_31
REMARK                            x       y       z     vdW  Elec       q    Type
REMARK                         _______ _______ _______ _____ _____    ______ ____
ROOT
ATOM      1  C   UNL     1     -21.951 -43.657  20.654  0.00  0.00    +0.000 A 
ATOM      2  C   UNL     1     -23.031 -43.233  21.331  0.00  0.00    +0.000 A 
ATOM      3  C   UNL     1     -22.912 -42.285  22.274  0.00  0.00    +0.000 A 
ATOM      4  C   UNL     1     -21.702 -41.768  22.537  0.00  0.00    +0.000 A 
ATOM      5  C   UNL     1     -20.621 -42.191  21.861  0.00  0.00    +0.000 A 
ATOM      6  C   UNL     1     -20.741 -43.136  20.915  0.00  0.00    +0.000 A 
ATOM      7  C   UNL     1     -21.422 -40.689  23.561  0.00  0.00    +0.000 C 
ATOM      8  C   UNL     1     -20.308 -41.260  24.417  0.00  0.00    +0.000 A 
ATOM      9  C   UNL     1     -19.216 -41.686  23.751  0.00  0.00    +0.000 A 
ATOM     10  C   UNL     1     -19.326 -41.507  22.244  0.00  0.00    +0.000 C 
ATOM     11  C   UNL     1     -20.798 -39.508  22.793  0.00  0.00    +0.000 C 
ATOM     12  C   UNL     1     -19.545 -39.999  21.999  0.00  0.00    +0.000 C 
ATOM     13  C   UNL     1     -20.373 -41.343  25.754  0.00  0.00    +0.000 A 
ATOM     14  C   UNL     1     -19.334 -41.860  26.424  0.00  0.00    +0.000 A 
ATOM     15  C   UNL     1     -19.882 -39.670  20.553  0.00  0.00    +0.000 C 
ATOM     16  C   UNL     1     -18.249 -42.282  25.758  0.00  0.00    +0.000 A 
ATOM     17  C   UNL     1     -18.164 -42.206  24.416  0.00  0.00    +0.000 A 
ATOM     18  C   UNL     1     -21.713 -38.945  21.716  0.00  0.00    +0.000 C 
ATOM     19  N   UNL     1     -21.125 -39.092  20.485  0.00  0.00    +0.000 N 
ATOM     20  O   UNL     1     -19.172 -39.892  19.602  0.00  0.00    +0.000 OA
ATOM     21  O   UNL     1     -22.798 -38.450  21.905  0.00  0.00    +0.000 OA
ENDROOT
BRANCH  17  35
ATOM     35  C   UNL     1     -16.921 -42.684  23.699  0.00  0.00    +0.000 C 
ATOM     36  F   UNL     1     -16.260 -41.656  23.185  0.00  0.00    +0.000 F 
ATOM     37  F   UNL     1     -17.164 -43.527  22.708  0.00  0.00    +0.000 F 
ATOM     38  F   UNL     1     -16.107 -43.296  24.545  0.00  0.00    +0.000 F 
ENDBRANCH  17  35
BRANCH  19  22
ATOM     22  C   UNL     1     -21.745 -38.651  19.242  0.00  0.00    +0.000 C 
BRANCH  22  23
ATOM     23  C   UNL     1     -22.363 -39.839  18.545  0.00  0.00    +0.000 C 
ATOM     24  C   UNL     1     -23.687 -39.996  18.381  0.00  0.00    +0.000 C 
BRANCH  24  25
ATOM     25  C   UNL     1     -24.327 -41.013  17.766  0.00  0.00    +0.000 A 
ATOM     26  C   UNL     1     -24.763 -40.844  16.502  0.00  0.00    +0.000 A 
ATOM     27  C   UNL     1     -25.405 -41.817  15.838  0.00  0.00    +0.000 A 
ATOM     28  C   UNL     1     -25.665 -43.002  16.417  0.00  0.00    +0.000 A 
ATOM     29  C   UNL     1     -25.201 -43.189  17.664  0.00  0.00    +0.000 A 
ATOM     30  C   UNL     1     -24.559 -42.214  18.328  0.00  0.00    +0.000 A 
BRANCH  28  31
ATOM     31  C   UNL     1     -26.335 -44.121  15.652  0.00  0.00    +0.000 C 
ATOM     32  F   UNL     1     -27.591 -43.842  15.336  0.00  0.00    +0.000 F 
ATOM     33  F   UNL     1     -25.698 -44.424  14.532  0.00  0.00    +0.000 F 
ATOM     34  F   UNL     1     -26.353 -45.213  16.401  0.00  0.00    +0.000 F 
ENDBRANCH  28  31
ENDBRANCH  24  25
ENDBRANCH  22  23
ENDBRANCH  19  22
TORSDOF 5
ENDMDL
MODEL 4
REMARK VINA RESULT:     -10.2      3.823      5.085
REMARK  Name = Fragment
REMARK  5 active torsions:
REMARK  status: ('A' for Active; 'I' for Inactive)
REMARK    1  A    between atoms: C_17  and  C_35
REMARK    2  A    between atoms: N_19  and  C_22
REMARK    3  A    between atoms: C_22  and  C_23
REMARK    4  A    between atoms: C_24  and  C_25
REMARK    5  A    between atoms: C_28  and  C_31
REMARK                            x       y       z     vdW  Elec       q    Type
REMARK                         _______ _______ _______ _____ _____    ______ ____
ROOT
ATOM      1  C   UNL     1     -20.887 -45.172  26.880  0.00  0.00    +0.000 A 
ATOM      2  C   UNL     1     -20.914 -45.048  25.542  0.00  0.00    +0.000 A 
ATOM      3  C   UNL     1     -22.078 -44.853  24.902  0.00  0.00    +0.000 A 
ATOM      4  C   UNL     1     -23.215 -44.787  25.611  0.00  0.00    +0.000 A 
ATOM      5  C   UNL     1     -23.190 -44.910  26.948  0.00  0.00    +0.000 A 
ATOM      6  C   UNL     1     -22.026 -45.101  27.589  0.00  0.00    +0.000 A 
ATOM      7  C   UNL     1     -24.592 -44.560  25.025  0.00  0.00    +0.000 C 
ATOM      8  C   UNL     1     -25.432 -45.692  25.584  0.00  0.00    +0.000 A 
ATOM      9  C   UNL     1     -25.418 -45.825  26.925  0.00  0.00    +0.000 A 
ATOM     10  C   UNL     1     -24.542 -44.794  27.621  0.00  0.00    +0.000 C 
ATOM     11  C   UNL     1     -25.137 -43.272  25.673  0.00  0.00    +0.000 C 
ATOM     12  C   UNL     1     -25.101 -43.410  27.229  0.00  0.00    +0.000 C 
ATOM     13  C   UNL     1     -26.159 -46.519  24.819  0.00  0.00    +0.000 A 
ATOM     14  C   UNL     1     -26.874 -47.488  25.407  0.00  0.00    +0.000 A 
ATOM     15  C   UNL     1     -24.213 -42.258  27.673  0.00  0.00    +0.000 C 
ATOM     16  C   UNL     1     -26.858 -47.618  26.743  0.00  0.00    +0.000 A 
ATOM     17  C   UNL     1     -26.135 -46.796  27.528  0.00  0.00    +0.000 A 
ATOM     18  C   UNL     1     -24.272 -42.052  25.397  0.00  0.00    +0.000 C 
ATOM     19  N   UNL     1     -23.782 -41.555  26.577  0.00  0.00    +0.000 N 
ATOM     20  O   UNL     1     -23.921 -42.002  28.817  0.00  0.00    +0.000 OA
ATOM     21  O   UNL     1     -24.040 -41.589  24.306  0.00  0.00    +0.000 OA
ENDROOT
BRANCH  17  35
ATOM     35  C   UNL     1     -26.148 -46.966  29.031  0.00  0.00    +0.000 C 
ATOM     36  F   UNL     1     -26.969 -47.946  29.379  0.00  0.00    +0.000 F 
ATOM     37  F   UNL     1     -26.529 -45.883  29.690  0.00  0.00    +0.000 F 
ATOM     38  F   UNL     1     -24.940 -47.287  29.469  0.00  0.00    +0.000 F 
ENDBRANCH  17  35
BRANCH  19  22
ATOM     22  C   UNL     1     -22.918 -40.383  26.657  0.00  0.00    +0.000 C 
BRANCH  22  23
ATOM     23  C   UNL     1     -21.501 -40.827  26.934  0.00  0.00    +0.000 C 
ATOM     24  C   UNL     1     -20.722 -41.432  26.022  0.00  0.00    +0.000 C 
BRANCH  24  25
ATOM     25  C   UNL     1     -19.448 -41.853  26.175  0.00  0.00    +0.000 A 
ATOM     26  C   UNL     1     -18.706 -42.104  25.078  0.00  0.00    +0.000 A 
ATOM     27  C   UNL     1     -17.434 -42.524  25.165  0.00  0.00    +0.000 A 
ATOM     28  C   UNL     1     -16.850 -42.737  26.356  0.00  0.00    +0.000 A 
ATOM     29  C   UNL     1     -17.573 -42.453  27.453  0.00  0.00    +0.000 A 
ATOM     30  C   UNL     1     -18.845 -42.033  27.365  0.00  0.00    +0.000 A 
BRANCH  28  31
ATOM     31  C   UNL     1     -15.400 -43.153  26.458  0.00  0.00    +0.000 C 
ATOM     32  F   UNL     1     -15.146 -43.855  27.552  0.00  0.00    +0.000 F 
ATOM     33  F   UNL     1     -15.003 -43.872  25.420  0.00  0.00    +0.000 F 
ATOM     34  F   UNL     1     -14.637 -42.072  26.502  0.00  0.00    +0.000 F 
ENDBRANCH  28  31
ENDBRANCH  24  25
ENDBRANCH  22  23
ENDBRANCH  19  22
TORSDOF 5
ENDMDL
MODEL 5
REMARK VINA RESULT:     -10.0      3.985      5.869
REMARK  Name = Fragment
REMARK  5 active torsions:
REMARK  status: ('A' for Active; 'I' for Inactive)
REMARK    1  A    between atoms: C_17  and  C_35
REMARK    2  A    between atoms: N_19  and  C_22
REMARK    3  A    between atoms: C_22  and  C_23
REMARK    4  A    between atoms: C_24  and  C_25
REMARK    5  A    between atoms: C_28  and  C_31
REMARK                            x       y       z     vdW  Elec       q    Type
REMARK                         _______ _______ _______ _____ _____    ______ ____
ROOT
ATOM      1  C   UNL     1     -19.612 -40.919  21.136  0.00  0.00    +0.000 A 
ATOM      2  C   UNL     1     -19.445 -39.894  21.988  0.00  0.00    +0.000 A 
ATOM      3  C   UNL     1     -20.473 -39.085  22.286  0.00  0.00    +0.000 A 
ATOM      4  C   UNL     1     -21.670 -39.307  21.722  0.00  0.00    +0.000 A 
ATOM      5  C   UNL     1     -21.839 -40.331  20.870  0.00  0.00    +0.000 A 
ATOM      6  C   UNL     1     -20.812 -41.143  20.574  0.00  0.00    +0.000 A 
ATOM      7  C   UNL     1     -22.916 -38.486  21.975  0.00  0.00    +0.000 C 
ATOM      8  C   UNL     1     -23.402 -38.099  20.591  0.00  0.00    +0.000 A 
ATOM      9  C   UNL     1     -23.579 -39.118  19.726  0.00  0.00    +0.000 A 
ATOM     10  C   UNL     1     -23.245 -40.477  20.324  0.00  0.00    +0.000 C 
ATOM     11  C   UNL     1     -23.974 -39.456  22.536  0.00  0.00    +0.000 C 
ATOM     12  C   UNL     1     -24.166 -40.652  21.549  0.00  0.00    +0.000 C 
ATOM     13  C   UNL     1     -23.656 -36.835  20.224  0.00  0.00    +0.000 A 
ATOM     14  C   UNL     1     -24.087 -36.594  18.978  0.00  0.00    +0.000 A 
ATOM     15  C   UNL     1     -23.820 -41.872  22.389  0.00  0.00    +0.000 C 
ATOM     16  C   UNL     1     -24.261 -37.610  18.120  0.00  0.00    +0.000 A 
ATOM     17  C   UNL     1     -24.013 -38.887  18.470  0.00  0.00    +0.000 A 
ATOM     18  C   UNL     1     -23.545 -40.122  23.835  0.00  0.00    +0.000 C 
ATOM     19  N   UNL     1     -23.470 -41.480  23.657  0.00  0.00    +0.000 N 
ATOM     20  O   UNL     1     -23.838 -43.016  22.002  0.00  0.00    +0.000 OA
ATOM     21  O   UNL     1     -23.298 -39.548  24.868  0.00  0.00    +0.000 OA
ENDROOT
BRANCH  17  35
ATOM     35  C   UNL     1     -24.230 -40.009  17.480  0.00  0.00    +0.000 C 
ATOM     36  F   UNL     1     -23.958 -39.599  16.249  0.00  0.00    +0.000 F 
ATOM     37  F   UNL     1     -25.465 -40.485  17.470  0.00  0.00    +0.000 F 
ATOM     38  F   UNL     1     -23.421 -41.023  17.747  0.00  0.00    +0.000 F 
ENDBRANCH  17  35
BRANCH  19  22
ATOM     22  C   UNL     1     -23.088 -42.407  24.714  0.00  0.00    +0.000 C 
BRANCH  22  23
ATOM     23  C   UNL     1     -21.608 -42.693  24.615  0.00  0.00    +0.000 C 
ATOM     24  C   UNL     1     -20.682 -42.077  25.369  0.00  0.00    +0.000 C 
BRANCH  24  25
ATOM     25  C   UNL     1     -19.347 -42.273  25.359  0.00  0.00    +0.000 A 
ATOM     26  C   UNL     1     -18.670 -42.238  26.524  0.00  0.00    +0.000 A 
ATOM     27  C   UNL     1     -17.343 -42.426  26.578  0.00  0.00    +0.000 A 
ATOM     28  C   UNL     1     -16.622 -42.633  25.463  0.00  0.00    +0.000 A 
ATOM     29  C   UNL     1     -17.295 -42.704  24.302  0.00  0.00    +0.000 A 
ATOM     30  C   UNL     1     -18.624 -42.516  24.250  0.00  0.00    +0.000 A 
BRANCH  28  31
ATOM     31  C   UNL     1     -15.136 -42.903  25.526  0.00  0.00    +0.000 C 
ATOM     32  F   UNL     1     -14.527 -42.193  26.464  0.00  0.00    +0.000 F 
ATOM     33  F   UNL     1     -14.859 -44.179  25.747  0.00  0.00    +0.000 F 
ATOM     34  F   UNL     1     -14.582 -42.577  24.368  0.00  0.00    +0.000 F 
ENDBRANCH  28  31
ENDBRANCH  24  25
ENDBRANCH  22  23
ENDBRANCH  19  22
TORSDOF 5
ENDMDL
MODEL 6
REMARK VINA RESULT:     -10.0      3.753      9.019
REMARK  Name = Fragment
REMARK  5 active torsions:
REMARK  status: ('A' for Active; 'I' for Inactive)
REMARK    1  A    between atoms: C_17  and  C_35
REMARK    2  A    between atoms: N_19  and  C_22
REMARK    3  A    between atoms: C_22  and  C_23
REMARK    4  A    between atoms: C_24  and  C_25
REMARK    5  A    between atoms: C_28  and  C_31
REMARK                            x       y       z     vdW  Elec       q    Type
REMARK                         _______ _______ _______ _____ _____    ______ ____
ROOT
ATOM      1  C   UNL     1     -21.541 -45.550  25.465  0.00  0.00    +0.000 A 
ATOM      2  C   UNL     1     -21.809 -45.337  26.763  0.00  0.00    +0.000 A 
ATOM      3  C   UNL     1     -21.261 -44.295  27.407  0.00  0.00    +0.000 A 
ATOM      4  C   UNL     1     -20.438 -43.470  26.742  0.00  0.00    +0.000 A 
ATOM      5  C   UNL     1     -20.169 -43.682  25.443  0.00  0.00    +0.000 A 
ATOM      6  C   UNL     1     -20.720 -44.722  24.798  0.00  0.00    +0.000 A 
ATOM      7  C   UNL     1     -19.761 -42.253  27.335  0.00  0.00    +0.000 C 
ATOM      8  C   UNL     1     -18.293 -42.437  27.003  0.00  0.00    +0.000 A 
ATOM      9  C   UNL     1     -18.008 -42.648  25.702  0.00  0.00    +0.000 A 
ATOM     10  C   UNL     1     -19.243 -42.662  24.813  0.00  0.00    +0.000 C 
ATOM     11  C   UNL     1     -20.231 -41.042  26.506  0.00  0.00    +0.000 C 
ATOM     12  C   UNL     1     -19.926 -41.290  24.993  0.00  0.00    +0.000 C 
ATOM     13  C   UNL     1     -17.317 -42.391  27.921  0.00  0.00    +0.000 A 
ATOM     14  C   UNL     1     -16.047 -42.561  27.528  0.00  0.00    +0.000 A 
ATOM     15  C   UNL     1     -21.293 -41.210  24.331  0.00  0.00    +0.000 C 
ATOM     16  C   UNL     1     -15.767 -42.771  26.233  0.00  0.00    +0.000 A 
ATOM     17  C   UNL     1     -16.733 -42.819  25.295  0.00  0.00    +0.000 A 
ATOM     18  C   UNL     1     -21.738 -40.840  26.543  0.00  0.00    +0.000 C 
ATOM     19  N   UNL     1     -22.255 -40.967  25.279  0.00  0.00    +0.000 N 
ATOM     20  O   UNL     1     -21.507 -41.349  23.151  0.00  0.00    +0.000 OA
ATOM     21  O   UNL     1     -22.391 -40.612  27.533  0.00  0.00    +0.000 OA
ENDROOT
BRANCH  17  35
ATOM     35  C   UNL     1     -16.381 -43.048  23.843  0.00  0.00    +0.000 C 
ATOM     36  F   UNL     1     -17.423 -43.537  23.185  0.00  0.00    +0.000 F 
ATOM     37  F   UNL     1     -15.373 -43.887  23.661  0.00  0.00    +0.000 F 
ATOM     38  F   UNL     1     -16.049 -41.904  23.263  0.00  0.00    +0.000 F 
ENDBRANCH  17  35
BRANCH  19  22
ATOM     22  C   UNL     1     -23.673 -40.827  24.974  0.00  0.00    +0.000 C 
BRANCH  22  23
ATOM     23  C   UNL     1     -23.860 -39.711  23.974  0.00  0.00    +0.000 C 
ATOM     24  C   UNL     1     -24.224 -39.914  22.697  0.00  0.00    +0.000 C 
BRANCH  24  25
ATOM     25  C   UNL     1     -24.424 -38.985  21.739  0.00  0.00    +0.000 A 
ATOM     26  C   UNL     1     -25.627 -38.916  21.134  0.00  0.00    +0.000 A 
ATOM     27  C   UNL     1     -25.886 -38.014  20.175  0.00  0.00    +0.000 A 
ATOM     28  C   UNL     1     -24.945 -37.150  19.756  0.00  0.00    +0.000 A 
ATOM     29  C   UNL     1     -23.756 -37.190  20.381  0.00  0.00    +0.000 A 
ATOM     30  C   UNL     1     -23.497 -38.093  21.340  0.00  0.00    +0.000 A 
BRANCH  28  31
ATOM     31  C   UNL     1     -25.252 -36.094  18.719  0.00  0.00    +0.000 C 
ATOM     32  F   UNL     1     -24.788 -36.408  17.519  0.00  0.00    +0.000 F 
ATOM     33  F   UNL     1     -26.550 -35.861  18.598  0.00  0.00    +0.000 F 
ATOM     34  F   UNL     1     -24.680 -34.954  19.073  0.00  0.00    +0.000 F 
ENDBRANCH  28  31
ENDBRANCH  24  25
ENDBRANCH  22  23
ENDBRANCH  19  22
TORSDOF 5
ENDMDL
MODEL 7
REMARK VINA RESULT:      -9.6     26.138     28.876
REMARK  Name = Fragment
REMARK  5 active torsions:
REMARK  status: ('A' for Active; 'I' for Inactive)
REMARK    1  A    between atoms: C_17  and  C_35
REMARK    2  A    between atoms: N_19  and  C_22
REMARK    3  A    between atoms: C_22  and  C_23
REMARK    4  A    between atoms: C_24  and  C_25
REMARK    5  A    between atoms: C_28  and  C_31
REMARK                            x       y       z     vdW  Elec       q    Type
REMARK                         _______ _______ _______ _____ _____    ______ ____
ROOT
ATOM      1  C   UNL     1       0.085 -58.424  12.203  0.00  0.00    +0.000 A 
ATOM      2  C   UNL     1       0.521 -59.113  11.135  0.00  0.00    +0.000 A 
ATOM      3  C   UNL     1      -0.319 -59.413  10.132  0.00  0.00    +0.000 A 
ATOM      4  C   UNL     1      -1.600 -59.021  10.207  0.00  0.00    +0.000 A 
ATOM      5  C   UNL     1      -2.037 -58.332  11.274  0.00  0.00    +0.000 A 
ATOM      6  C   UNL     1      -1.197 -58.029  12.276  0.00  0.00    +0.000 A 
ATOM      7  C   UNL     1      -2.651 -59.277   9.149  0.00  0.00    +0.000 C 
ATOM      8  C   UNL     1      -3.800 -59.919   9.904  0.00  0.00    +0.000 A 
ATOM      9  C   UNL     1      -4.250 -59.236  10.975  0.00  0.00    +0.000 A 
ATOM     10  C   UNL     1      -3.498 -57.936  11.218  0.00  0.00    +0.000 C 
ATOM     11  C   UNL     1      -3.164 -57.896   8.697  0.00  0.00    +0.000 C 
ATOM     12  C   UNL     1      -3.667 -57.090   9.938  0.00  0.00    +0.000 C 
ATOM     13  C   UNL     1      -4.357 -61.084   9.548  0.00  0.00    +0.000 A 
ATOM     14  C   UNL     1      -5.372 -61.569  10.276  0.00  0.00    +0.000 A 
ATOM     15  C   UNL     1      -2.801 -55.838   9.930  0.00  0.00    +0.000 C 
ATOM     16  C   UNL     1      -5.818 -60.888  11.343  0.00  0.00    +0.000 A 
ATOM     17  C   UNL     1      -5.273 -59.714  11.715  0.00  0.00    +0.000 A 
ATOM     18  C   UNL     1      -2.072 -57.015   8.110  0.00  0.00    +0.000 C 
ATOM     19  N   UNL     1      -1.925 -55.886   8.876  0.00  0.00    +0.000 N 
ATOM     20  O   UNL     1      -2.865 -54.940  10.734  0.00  0.00    +0.000 OA
ATOM     21  O   UNL     1      -1.421 -57.268   7.125  0.00  0.00    +0.000 OA
ENDROOT
BRANCH  17  35
ATOM     35  C   UNL     1      -5.807 -58.968  12.917  0.00  0.00    +0.000 C 
ATOM     36  F   UNL     1      -6.991 -59.448  13.271  0.00  0.00    +0.000 F 
ATOM     37  F   UNL     1      -5.954 -57.667  12.719  0.00  0.00    +0.000 F 
ATOM     38  F   UNL     1      -4.994 -59.118  13.952  0.00  0.00    +0.000 F 
ENDBRANCH  17  35
BRANCH  19  22
ATOM     22  C   UNL     1      -0.959 -54.836   8.579  0.00  0.00    +0.000 C 
BRANCH  22  23
ATOM     23  C   UNL     1       0.053 -54.760   9.697  0.00  0.00    +0.000 C 
ATOM     24  C   UNL     1       1.001 -55.689   9.904  0.00  0.00    +0.000 C 
BRANCH  24  25
ATOM     25  C   UNL     1       1.948 -55.700  10.865  0.00  0.00    +0.000 A 
ATOM     26  C   UNL     1       1.851 -54.832  11.892  0.00  0.00    +0.000 A 
ATOM     27  C   UNL     1       2.761 -54.796  12.877  0.00  0.00    +0.000 A 
ATOM     28  C   UNL     1       3.830 -55.611  12.870  0.00  0.00    +0.000 A 
ATOM     29  C   UNL     1       3.913 -56.503  11.869  0.00  0.00    +0.000 A 
ATOM     30  C   UNL     1       3.002 -56.539  10.883  0.00  0.00    +0.000 A 
BRANCH  28  31
ATOM     31  C   UNL     1       4.825 -55.614  14.008  0.00  0.00    +0.000 C 
ATOM     32  F   UNL     1       5.755 -54.681  13.875  0.00  0.00    +0.000 F 
ATOM     33  F   UNL     1       4.250 -55.439  15.188  0.00  0.00    +0.000 F 
ATOM     34  F   UNL     1       5.445 -56.783  14.045  0.00  0.00    +0.000 F 
ENDBRANCH  28  31
ENDBRANCH  24  25
ENDBRANCH  22  23
ENDBRANCH  19  22
TORSDOF 5
ENDMDL
MODEL 8
REMARK VINA RESULT:      -9.3      4.570      8.889
REMARK  Name = Fragment
REMARK  5 active torsions:
REMARK  status: ('A' for Active; 'I' for Inactive)
REMARK    1  A    between atoms: C_17  and  C_35
REMARK    2  A    between atoms: N_19  and  C_22
REMARK    3  A    between atoms: C_22  and  C_23
REMARK    4  A    between atoms: C_24  and  C_25
REMARK    5  A    between atoms: C_28  and  C_31
REMARK                            x       y       z     vdW  Elec       q    Type
REMARK                         _______ _______ _______ _____ _____    ______ ____
ROOT
ATOM      1  C   UNL     1     -21.168 -38.639  21.921  0.00  0.00    +0.000 A 
ATOM      2  C   UNL     1     -20.342 -38.955  20.910  0.00  0.00    +0.000 A 
ATOM      3  C   UNL     1     -19.713 -40.141  20.893  0.00  0.00    +0.000 A 
ATOM      4  C   UNL     1     -19.915 -41.006  21.897  0.00  0.00    +0.000 A 
ATOM      5  C   UNL     1     -20.741 -40.692  22.909  0.00  0.00    +0.000 A 
ATOM      6  C   UNL     1     -21.373 -39.508  22.925  0.00  0.00    +0.000 A 
ATOM      7  C   UNL     1     -19.285 -42.379  22.003  0.00  0.00    +0.000 C 
ATOM      8  C   UNL     1     -18.654 -42.401  23.381  0.00  0.00    +0.000 A 
ATOM      9  C   UNL     1     -19.473 -42.090  24.406  0.00  0.00    +0.000 A 
ATOM     10  C   UNL     1     -20.893 -41.770  23.963  0.00  0.00    +0.000 C 
ATOM     11  C   UNL     1     -20.446 -43.391  22.055  0.00  0.00    +0.000 C 
ATOM     12  C   UNL     1     -21.413 -43.023  23.227  0.00  0.00    +0.000 C 
ATOM     13  C   UNL     1     -17.369 -42.713  23.599  0.00  0.00    +0.000 A 
ATOM     14  C   UNL     1     -16.903 -42.710  24.856  0.00  0.00    +0.000 A 
ATOM     15  C   UNL     1     -22.749 -42.799  22.535  0.00  0.00    +0.000 C 
ATOM     16  C   UNL     1     -17.721 -42.400  25.874  0.00  0.00    +0.000 A 
ATOM     17  C   UNL     1     -19.015 -42.085  25.675  0.00  0.00    +0.000 A 
ATOM     18  C   UNL     1     -21.336 -43.345  20.822  0.00  0.00    +0.000 C 
ATOM     19  N   UNL     1     -22.610 -42.989  21.183  0.00  0.00    +0.000 N 
ATOM     20  O   UNL     1     -23.778 -42.490  23.086  0.00  0.00    +0.000 OA
ATOM     21  O   UNL     1     -20.980 -43.577  19.692  0.00  0.00    +0.000 OA
ENDROOT
BRANCH  17  35
ATOM     35  C   UNL     1     -19.911 -41.749  26.847  0.00  0.00    +0.000 C 
ATOM     36  F   UNL     1     -19.185 -41.507  27.929  0.00  0.00    +0.000 F 
ATOM     37  F   UNL     1     -20.770 -42.708  27.157  0.00  0.00    +0.000 F 
ATOM     38  F   UNL     1     -20.616 -40.658  26.591  0.00  0.00    +0.000 F 
ENDBRANCH  17  35
BRANCH  19  22
ATOM     22  C   UNL     1     -23.706 -42.858  20.231  0.00  0.00    +0.000 C 
BRANCH  22  23
ATOM     23  C   UNL     1     -23.896 -41.400  19.889  0.00  0.00    +0.000 C 
ATOM     24  C   UNL     1     -23.493 -40.852  18.730  0.00  0.00    +0.000 C 
BRANCH  24  25
ATOM     25  C   UNL     1     -23.628 -39.569  18.334  0.00  0.00    +0.000 A 
ATOM     26  C   UNL     1     -23.930 -39.309  17.045  0.00  0.00    +0.000 A 
ATOM     27  C   UNL     1     -24.077 -38.055  16.592  0.00  0.00    +0.000 A 
ATOM     28  C   UNL     1     -23.905 -36.996  17.401  0.00  0.00    +0.000 A 
ATOM     29  C   UNL     1     -23.639 -37.249  18.693  0.00  0.00    +0.000 A 
ATOM     30  C   UNL     1     -23.492 -38.504  19.147  0.00  0.00    +0.000 A 
BRANCH  28  31
ATOM     31  C   UNL     1     -24.128 -35.585  16.907  0.00  0.00    +0.000 C 
ATOM     32  F   UNL     1     -25.306 -35.428  16.323  0.00  0.00    +0.000 F 
ATOM     33  F   UNL     1     -24.039 -34.686  17.875  0.00  0.00    +0.000 F 
ATOM     34  F   UNL     1     -23.203 -35.284  16.008  0.00  0.00    +0.000 F 
ENDBRANCH  28  31
ENDBRANCH  24  25
ENDBRANCH  22  23
ENDBRANCH  19  22
TORSDOF 5
ENDMDL
MODEL 9
REMARK VINA RESULT:      -9.3     16.626     20.719
REMARK  Name = Fragment
REMARK  5 active torsions:
REMARK  status: ('A' for Active; 'I' for Inactive)
REMARK    1  A    between atoms: C_17  and  C_35
REMARK    2  A    between atoms: N_19  and  C_22
REMARK    3  A    between atoms: C_22  and  C_23
REMARK    4  A    between atoms: C_24  and  C_25
REMARK    5  A    between atoms: C_28  and  C_31
REMARK                            x       y       z     vdW  Elec       q    Type
REMARK                         _______ _______ _______ _____ _____    ______ ____
ROOT
ATOM      1  C   UNL     1      -6.925 -34.660  14.476  0.00  0.00    +0.000 A 
ATOM      2  C   UNL     1      -6.604 -33.446  14.000  0.00  0.00    +0.000 A 
ATOM      3  C   UNL     1      -6.294 -33.286  12.703  0.00  0.00    +0.000 A 
ATOM      4  C   UNL     1      -6.303 -34.352  11.889  0.00  0.00    +0.000 A 
ATOM      5  C   UNL     1      -6.624 -35.567  12.364  0.00  0.00    +0.000 A 
ATOM      6  C   UNL     1      -6.937 -35.726  13.660  0.00  0.00    +0.000 A 
ATOM      7  C   UNL     1      -5.988 -34.318  10.409  0.00  0.00    +0.000 C 
ATOM      8  C   UNL     1      -4.924 -35.384  10.224  0.00  0.00    +0.000 A 
ATOM      9  C   UNL     1      -5.235 -36.609  10.694  0.00  0.00    +0.000 A 
ATOM     10  C   UNL     1      -6.615 -36.675  11.331  0.00  0.00    +0.000 C 
ATOM     11  C   UNL     1      -7.241 -34.843   9.682  0.00  0.00    +0.000 C 
ATOM     12  C   UNL     1      -7.620 -36.253  10.239  0.00  0.00    +0.000 C 
ATOM     13  C   UNL     1      -3.746 -35.155   9.628  0.00  0.00    +0.000 A 
ATOM     14  C   UNL     1      -2.872 -36.163   9.507  0.00  0.00    +0.000 A 
ATOM     15  C   UNL     1      -9.034 -36.064  10.767  0.00  0.00    +0.000 C 
ATOM     16  C   UNL     1      -3.183 -37.382   9.977  0.00  0.00    +0.000 A 
ATOM     17  C   UNL     1      -4.363 -37.632  10.577  0.00  0.00    +0.000 A 
ATOM     18  C   UNL     1      -8.481 -34.003   9.945  0.00  0.00    +0.000 C 
ATOM     19  N   UNL     1      -9.433 -34.766  10.572  0.00  0.00    +0.000 N 
ATOM     20  O   UNL     1      -9.705 -36.921  11.289  0.00  0.00    +0.000 OA
ATOM     21  O   UNL     1      -8.613 -32.838   9.657  0.00  0.00    +0.000 OA
ENDROOT
BRANCH  17  35
ATOM     35  C   UNL     1      -4.685 -39.019  11.085  0.00  0.00    +0.000 C 
ATOM     36  F   UNL     1      -3.710 -39.862  10.778  0.00  0.00    +0.000 F 
ATOM     37  F   UNL     1      -5.807 -39.523  10.597  0.00  0.00    +0.000 F 
ATOM     38  F   UNL     1      -4.800 -39.011  12.405  0.00  0.00    +0.000 F 
ENDBRANCH  17  35
BRANCH  19  22
ATOM     22  C   UNL     1     -10.742 -34.256  10.960  0.00  0.00    +0.000 C 
BRANCH  22  23
ATOM     23  C   UNL     1     -10.894 -34.364  12.459  0.00  0.00    +0.000 C 
ATOM     24  C   UNL     1     -10.219 -33.596  13.330  0.00  0.00    +0.000 C 
BRANCH  24  25
ATOM     25  C   UNL     1     -10.296 -33.614  14.677  0.00  0.00    +0.000 A 
ATOM     26  C   UNL     1     -10.608 -34.768  15.300  0.00  0.00    +0.000 A 
ATOM     27  C   UNL     1     -10.699 -34.849  16.637  0.00  0.00    +0.000 A 
ATOM     28  C   UNL     1     -10.507 -33.771  17.415  0.00  0.00    +0.000 A 
ATOM     29  C   UNL     1     -10.161 -32.626  16.803  0.00  0.00    +0.000 A 
ATOM     30  C   UNL     1     -10.069 -32.546  15.465  0.00  0.00    +0.000 A 
BRANCH  28  31
ATOM     31  C   UNL     1     -10.551 -33.871  18.923  0.00  0.00    +0.000 C 
ATOM     32  F   UNL     1     -10.573 -32.686  19.514  0.00  0.00    +0.000 F 
ATOM     33  F   UNL     1     -11.598 -34.554  19.357  0.00  0.00    +0.000 F 
ATOM     34  F   UNL     1      -9.468 -34.501  19.352  0.00  0.00    +0.000 F 
ENDBRANCH  28  31
ENDBRANCH  24  25
ENDBRANCH  22  23
ENDBRANCH  19  22
TORSDOF 5
ENDMDL
MODEL 10
REMARK VINA RESULT:      -9.2     16.807     19.779
REMARK  Name = Fragment
REMARK  5 active torsions:
REMARK  status: ('A' for Active; 'I' for Inactive)
REMARK    1  A    between atoms: C_17  and  C_35
REMARK    2  A    between atoms: N_19  and  C_22
REMARK    3  A    between atoms: C_22  and  C_23
REMARK    4  A    between atoms: C_24  and  C_25
REMARK    5  A    between atoms: C_28  and  C_31
REMARK                            x       y       z     vdW  Elec       q    Type
REMARK                         _______ _______ _______ _____ _____    ______ ____
ROOT
ATOM      1  C   UNL     1      -7.313 -36.457  12.504  0.00  0.00    +0.000 A 
ATOM      2  C   UNL     1      -7.321 -35.697  11.396  0.00  0.00    +0.000 A 
ATOM      3  C   UNL     1      -7.677 -34.405  11.462  0.00  0.00    +0.000 A 
ATOM      4  C   UNL     1      -8.029 -33.880  12.646  0.00  0.00    +0.000 A 
ATOM      5  C   UNL     1      -8.021 -34.638  13.754  0.00  0.00    +0.000 A 
ATOM      6  C   UNL     1      -7.661 -35.930  13.689  0.00  0.00    +0.000 A 
ATOM      7  C   UNL     1      -8.439 -32.440  12.871  0.00  0.00    +0.000 C 
ATOM      8  C   UNL     1      -9.767 -32.535  13.597  0.00  0.00    +0.000 A 
ATOM      9  C   UNL     1      -9.773 -33.291  14.713  0.00  0.00    +0.000 A 
ATOM     10  C   UNL     1      -8.419 -33.912  15.023  0.00  0.00    +0.000 C 
ATOM     11  C   UNL     1      -7.443 -31.855  13.890  0.00  0.00    +0.000 C 
ATOM     12  C   UNL     1      -7.426 -32.740  15.178  0.00  0.00    +0.000 C 
ATOM     13  C   UNL     1     -10.880 -31.911  13.184  0.00  0.00    +0.000 A 
ATOM     14  C   UNL     1     -12.006 -32.052  13.897  0.00  0.00    +0.000 A 
ATOM     15  C   UNL     1      -5.978 -33.192  15.286  0.00  0.00    +0.000 C 
ATOM     16  C   UNL     1     -12.008 -32.805  15.007  0.00  0.00    +0.000 A 
ATOM     17  C   UNL     1     -10.900 -33.438  15.439  0.00  0.00    +0.000 A 
ATOM     18  C   UNL     1      -6.001 -31.890  13.406  0.00  0.00    +0.000 C 
ATOM     19  N   UNL     1      -5.251 -32.678  14.242  0.00  0.00    +0.000 N 
ATOM     20  O   UNL     1      -5.531 -33.905  16.153  0.00  0.00    +0.000 OA
ATOM     21  O   UNL     1      -5.575 -31.322  12.430  0.00  0.00    +0.000 OA
ENDROOT
BRANCH  17  35
ATOM     35  C   UNL     1     -10.936 -34.271  16.700  0.00  0.00    +0.000 C 
ATOM     36  F   UNL     1     -10.215 -35.373  16.548  0.00  0.00    +0.000 F 
ATOM     37  F   UNL     1     -12.153 -34.646  17.061  0.00  0.00    +0.000 F 
ATOM     38  F   UNL     1     -10.416 -33.596  17.714  0.00  0.00    +0.000 F 
ENDBRANCH  17  35
BRANCH  19  22
ATOM     22  C   UNL     1      -3.826 -32.916  14.054  0.00  0.00    +0.000 C 
BRANCH  22  23
ATOM     23  C   UNL     1      -3.635 -34.130  13.176  0.00  0.00    +0.000 C 
ATOM     24  C   UNL     1      -3.965 -35.377  13.554  0.00  0.00    +0.000 C 
BRANCH  24  25
ATOM     25  C   UNL     1      -3.842 -36.515  12.839  0.00  0.00    +0.000 A 
ATOM     26  C   UNL     1      -3.858 -37.699  13.483  0.00  0.00    +0.000 A 
ATOM     27  C   UNL     1      -3.740 -38.864  12.827  0.00  0.00    +0.000 A 
ATOM     28  C   UNL     1      -3.575 -38.900  11.494  0.00  0.00    +0.000 A 
ATOM     29  C   UNL     1      -3.594 -37.725  10.842  0.00  0.00    +0.000 A 
ATOM     30  C   UNL     1      -3.712 -36.560  11.499  0.00  0.00    +0.000 A 
BRANCH  28  31
ATOM     31  C   UNL     1      -3.501 -40.211  10.746  0.00  0.00    +0.000 C 
ATOM     32  F   UNL     1      -3.019 -40.074   9.521  0.00  0.00    +0.000 F 
ATOM     33  F   UNL     1      -2.758 -41.112  11.370  0.00  0.00    +0.000 F 
ATOM     34  F   UNL     1      -4.719 -40.719  10.632  0.00  0.00    +0.000 F 
ENDBRANCH  28  31
ENDBRANCH  24  25
ENDBRANCH  22  23
ENDBRANCH  19  22
TORSDOF 5
ENDMDL
