MODEL 1
REMARK VINA RESULT:     -10.5      0.000      0.000
REMARK  Name = Fragment
REMARK  4 active torsions:
REMARK  status: ('A' for Active; 'I' for Inactive)
REMARK    1  A    between atoms: N_19  and  C_22
REMARK    2  A    between atoms: C_22  and  C_23
REMARK    3  A    between atoms: C_24  and  C_25
REMARK    4  A    between atoms: C_28  and  C_31
REMARK                            x       y       z     vdW  Elec       q    Type
REMARK                         _______ _______ _______ _____ _____    ______ ____
ROOT
ATOM      1  C   UNL     1     -19.057 -41.576  22.242  0.00  0.00    +0.000 A 
ATOM      2  C   UNL     1     -19.188 -40.286  22.593  0.00  0.00    +0.000 A 
ATOM      3  C   UNL     1     -20.384 -39.682  22.516  0.00  0.00    +0.000 A 
ATOM      4  C   UNL     1     -21.447 -40.377  22.082  0.00  0.00    +0.000 A 
ATOM      5  C   UNL     1     -21.317 -41.671  21.738  0.00  0.00    +0.000 A 
ATOM      6  C   UNL     1     -20.123 -42.275  21.819  0.00  0.00    +0.000 A 
ATOM      7  C   UNL     1     -22.852 -39.823  21.960  0.00  0.00    +0.000 C 
ATOM      8  C   UNL     1     -23.273 -40.152  20.542  0.00  0.00    +0.000 A 
ATOM      9  C   UNL     1     -23.143 -41.447  20.200  0.00  0.00    +0.000 A 
ATOM     10  C   UNL     1     -22.602 -42.342  21.294  0.00  0.00    +0.000 C 
ATOM     11  C   UNL     1     -23.735 -40.698  22.875  0.00  0.00    +0.000 C 
ATOM     12  C   UNL     1     -23.581 -42.204  22.479  0.00  0.00    +0.000 C 
ATOM     13  C   UNL     1     -23.751 -39.264  19.657  0.00  0.00    +0.000 A 
ATOM     14  C   UNL     1     -24.094 -39.677  18.427  0.00  0.00    +0.000 A 
ATOM     15  C   UNL     1     -23.058 -42.858  23.747  0.00  0.00    +0.000 C 
ATOM     16  C   UNL     1     -23.965 -40.969  18.085  0.00  0.00    +0.000 A 
ATOM     17  C   UNL     1     -23.489 -41.859  18.971  0.00  0.00    +0.000 A 
ATOM     18  C   UNL     1     -23.287 -40.657  24.328  0.00  0.00    +0.000 C 
ATOM     19  N   UNL     1     -22.936 -41.919  24.740  0.00  0.00    +0.000 N 
ATOM     20  O   UNL     1     -22.754 -44.020  23.866  0.00  0.00    +0.000 OA
ATOM     21  O   UNL     1     -23.219 -39.664  25.010  0.00  0.00    +0.000 OA
ENDROOT
BRANCH  19  22
ATOM     22  C   UNL     1     -22.402 -42.225  26.062  0.00  0.00    +0.000 C 
BRANCH  22  23
ATOM     23  C   UNL     1     -20.925 -41.848  26.082  0.00  0.00    +0.000 C 
ATOM     24  C   UNL     1     -20.149 -42.258  27.176  0.00  0.00    +0.000 C 
ATOM     35  O   UNL     1     -20.669 -40.810  27.191  0.00  0.00    +0.000 OA
BRANCH  24  25
ATOM     25  C   UNL     1     -18.742 -42.405  26.816  0.00  0.00    +0.000 A 
ATOM     26  C   UNL     1     -18.429 -42.538  25.514  0.00  0.00    +0.000 A 
ATOM     27  C   UNL     1     -17.158 -42.681  25.110  0.00  0.00    +0.000 A 
ATOM     28  C   UNL     1     -16.143 -42.680  25.991  0.00  0.00    +0.000 A 
ATOM     29  C   UNL     1     -16.457 -42.591  27.296  0.00  0.00    +0.000 A 
ATOM     30  C   UNL     1     -17.729 -42.446  27.701  0.00  0.00    +0.000 A 
BRANCH  28  31
ATOM     31  C   UNL     1     -14.716 -42.892  25.542  0.00  0.00    +0.000 C 
ATOM     32  F   UNL     1     -14.429 -42.241  24.426  0.00  0.00    +0.000 F 
ATOM     33  F   UNL     1     -14.523 -44.181  25.304  0.00  0.00    +0.000 F 
ATOM     34  F   UNL     1     -13.833 -42.528  26.459  0.00  0.00    +0.000 F 
ENDBRANCH  28  31
ENDBRANCH  24  25
ENDBRANCH  22  23
ENDBRANCH  19  22
TORSDOF 4
ENDMDL
MODEL 2
REMARK VINA RESULT:     -10.2     26.602     29.153
REMARK  Name = Fragment
REMARK  4 active torsions:
REMARK  status: ('A' for Active; 'I' for Inactive)
REMARK    1  A    between atoms: N_19  and  C_22
REMARK    2  A    between atoms: C_22  and  C_23
REMARK    3  A    between atoms: C_24  and  C_25
REMARK    4  A    between atoms: C_28  and  C_31
REMARK                            x       y       z     vdW  Elec       q    Type
REMARK                         _______ _______ _______ _____ _____    ______ ____
ROOT
ATOM      1  C   UNL     1      -2.914 -57.301  11.037  0.00  0.00    +0.000 A 
ATOM      2  C   UNL     1      -3.080 -55.988  10.808  0.00  0.00    +0.000 A 
ATOM      3  C   UNL     1      -2.022 -55.210  10.530  0.00  0.00    +0.000 A 
ATOM      4  C   UNL     1      -0.797 -55.755  10.488  0.00  0.00    +0.000 A 
ATOM      5  C   UNL     1      -0.632 -57.071  10.709  0.00  0.00    +0.000 A 
ATOM      6  C   UNL     1      -1.689 -57.849  10.982  0.00  0.00    +0.000 A 
ATOM      7  C   UNL     1       0.478 -54.997  10.174  0.00  0.00    +0.000 C 
ATOM      8  C   UNL     1       1.418 -55.339  11.312  0.00  0.00    +0.000 A 
ATOM      9  C   UNL     1       1.583 -56.657  11.531  0.00  0.00    +0.000 A 
ATOM     10  C   UNL     1       0.800 -57.559  10.601  0.00  0.00    +0.000 C 
ATOM     11  C   UNL     1       1.073 -55.668   8.919  0.00  0.00    +0.000 C 
ATOM     12  C   UNL     1       1.262 -57.200   9.174  0.00  0.00    +0.000 C 
ATOM     13  C   UNL     1       2.068 -54.442  12.068  0.00  0.00    +0.000 A 
ATOM     14  C   UNL     1       2.881 -54.869  13.048  0.00  0.00    +0.000 A 
ATOM     15  C   UNL     1       0.403 -57.851   8.102  0.00  0.00    +0.000 C 
ATOM     16  C   UNL     1       3.045 -56.183  13.268  0.00  0.00    +0.000 A 
ATOM     17  C   UNL     1       2.397 -57.082  12.509  0.00  0.00    +0.000 A 
ATOM     18  C   UNL     1       0.130 -55.611   7.726  0.00  0.00    +0.000 C 
ATOM     19  N   UNL     1      -0.185 -56.886   7.324  0.00  0.00    +0.000 N 
ATOM     20  O   UNL     1       0.223 -59.038   7.968  0.00  0.00    +0.000 OA
ATOM     21  O   UNL     1      -0.302 -54.602   7.225  0.00  0.00    +0.000 OA
ENDROOT
BRANCH  19  22
ATOM     22  C   UNL     1      -1.117 -57.193   6.245  0.00  0.00    +0.000 C 
BRANCH  22  23
ATOM     23  C   UNL     1      -2.484 -57.477   6.858  0.00  0.00    +0.000 C 
ATOM     24  C   UNL     1      -2.988 -58.783   6.779  0.00  0.00    +0.000 C 
ATOM     35  O   UNL     1      -3.503 -57.771   5.741  0.00  0.00    +0.000 OA
BRANCH  24  25
ATOM     25  C   UNL     1      -3.914 -59.072   7.871  0.00  0.00    +0.000 A 
ATOM     26  C   UNL     1      -4.885 -58.178   8.134  0.00  0.00    +0.000 A 
ATOM     27  C   UNL     1      -5.769 -58.375   9.124  0.00  0.00    +0.000 A 
ATOM     28  C   UNL     1      -5.729 -59.484   9.882  0.00  0.00    +0.000 A 
ATOM     29  C   UNL     1      -4.733 -60.356   9.650  0.00  0.00    +0.000 A 
ATOM     30  C   UNL     1      -3.848 -60.162   8.657  0.00  0.00    +0.000 A 
BRANCH  28  31
ATOM     31  C   UNL     1      -6.691 -59.682  11.030  0.00  0.00    +0.000 C 
ATOM     32  F   UNL     1      -6.587 -60.879  11.584  0.00  0.00    +0.000 F 
ATOM     33  F   UNL     1      -7.932 -59.564  10.582  0.00  0.00    +0.000 F 
ATOM     34  F   UNL     1      -6.534 -58.781  11.988  0.00  0.00    +0.000 F 
ENDBRANCH  28  31
ENDBRANCH  24  25
ENDBRANCH  22  23
ENDBRANCH  19  22
TORSDOF 4
ENDMDL
MODEL 3
REMARK VINA RESULT:     -10.1      4.370      7.662
REMARK  Name = Fragment
REMARK  4 active torsions:
REMARK  status: ('A' for Active; 'I' for Inactive)
REMARK    1  A    between atoms: N_19  and  C_22
REMARK    2  A    between atoms: C_22  and  C_23
REMARK    3  A    between atoms: C_24  and  C_25
REMARK    4  A    between atoms: C_28  and  C_31
REMARK                            x       y       z     vdW  Elec       q    Type
REMARK                         _______ _______ _______ _____ _____    ______ ____
ROOT
ATOM      1  C   UNL     1     -21.598 -45.647  25.677  0.00  0.00    +0.000 A 
ATOM      2  C   UNL     1     -21.776 -45.385  26.983  0.00  0.00    +0.000 A 
ATOM      3  C   UNL     1     -21.191 -44.315  27.543  0.00  0.00    +0.000 A 
ATOM      4  C   UNL     1     -20.425 -43.512  26.789  0.00  0.00    +0.000 A 
ATOM      5  C   UNL     1     -20.255 -43.770  25.480  0.00  0.00    +0.000 A 
ATOM      6  C   UNL     1     -20.843 -44.837  24.919  0.00  0.00    +0.000 A 
ATOM      7  C   UNL     1     -19.720 -42.267  27.290  0.00  0.00    +0.000 C 
ATOM      8  C   UNL     1     -18.278 -42.442  26.857  0.00  0.00    +0.000 A 
ATOM      9  C   UNL     1     -18.110 -42.699  25.547  0.00  0.00    +0.000 A 
ATOM     10  C   UNL     1     -19.391 -42.766  24.742  0.00  0.00    +0.000 C 
ATOM     11  C   UNL     1     -20.274 -41.098  26.450  0.00  0.00    +0.000 C 
ATOM     12  C   UNL     1     -20.080 -41.399  24.927  0.00  0.00    +0.000 C 
ATOM     13  C   UNL     1     -17.215 -42.350  27.670  0.00  0.00    +0.000 A 
ATOM     14  C   UNL     1     -15.982 -42.521  27.166  0.00  0.00    +0.000 A 
ATOM     15  C   UNL     1     -21.496 -41.380  24.375  0.00  0.00    +0.000 C 
ATOM     16  C   UNL     1     -15.814 -42.778  25.859  0.00  0.00    +0.000 A 
ATOM     17  C   UNL     1     -16.877 -42.867  25.044  0.00  0.00    +0.000 A 
ATOM     18  C   UNL     1     -21.779 -40.935  26.601  0.00  0.00    +0.000 C 
ATOM     19  N   UNL     1     -22.386 -41.098  25.380  0.00  0.00    +0.000 N 
ATOM     20  O   UNL     1     -21.809 -41.615  23.232  0.00  0.00    +0.000 OA
ATOM     21  O   UNL     1     -22.359 -40.726  27.638  0.00  0.00    +0.000 OA
ENDROOT
BRANCH  19  22
ATOM     22  C   UNL     1     -23.830 -41.067  25.177  0.00  0.00    +0.000 C 
BRANCH  22  23
ATOM     23  C   UNL     1     -24.371 -42.480  25.367  0.00  0.00    +0.000 C 
ATOM     24  C   UNL     1     -24.962 -43.118  24.267  0.00  0.00    +0.000 C 
ATOM     35  O   UNL     1     -25.909 -42.462  25.287  0.00  0.00    +0.000 OA
BRANCH  24  25
ATOM     25  C   UNL     1     -24.860 -44.571  24.366  0.00  0.00    +0.000 A 
ATOM     26  C   UNL     1     -25.213 -45.156  25.526  0.00  0.00    +0.000 A 
ATOM     27  C   UNL     1     -25.141 -46.485  25.690  0.00  0.00    +0.000 A 
ATOM     28  C   UNL     1     -24.730 -47.288  24.695  0.00  0.00    +0.000 A 
ATOM     29  C   UNL     1     -24.335 -46.703  23.550  0.00  0.00    +0.000 A 
ATOM     30  C   UNL     1     -24.408 -45.372  23.384  0.00  0.00    +0.000 A 
BRANCH  28  31
ATOM     31  C   UNL     1     -24.599 -48.780  24.896  0.00  0.00    +0.000 C 
ATOM     32  F   UNL     1     -24.944 -49.164  26.115  0.00  0.00    +0.000 F 
ATOM     33  F   UNL     1     -23.336 -49.134  24.718  0.00  0.00    +0.000 F 
ATOM     34  F   UNL     1     -25.325 -49.477  24.035  0.00  0.00    +0.000 F 
ENDBRANCH  28  31
ENDBRANCH  24  25
ENDBRANCH  22  23
ENDBRANCH  19  22
TORSDOF 4
ENDMDL
MODEL 4
REMARK VINA RESULT:      -9.7      2.860      5.460
REMARK  Name = Fragment
REMARK  4 active torsions:
REMARK  status: ('A' for Active; 'I' for Inactive)
REMARK    1  A    between atoms: N_19  and  C_22
REMARK    2  A    between atoms: C_22  and  C_23
REMARK    3  A    between atoms: C_24  and  C_25
REMARK    4  A    between atoms: C_28  and  C_31
REMARK                            x       y       z     vdW  Elec       q    Type
REMARK                         _______ _______ _______ _____ _____    ______ ____
ROOT
ATOM      1  C   UNL     1     -20.826 -45.426  26.469  0.00  0.00    +0.000 A 
ATOM      2  C   UNL     1     -21.400 -45.746  25.297  0.00  0.00    +0.000 A 
ATOM      3  C   UNL     1     -22.561 -45.179  24.936  0.00  0.00    +0.000 A 
ATOM      4  C   UNL     1     -23.145 -44.292  25.756  0.00  0.00    +0.000 A 
ATOM      5  C   UNL     1     -22.566 -43.966  26.925  0.00  0.00    +0.000 A 
ATOM      6  C   UNL     1     -21.403 -44.530  27.285  0.00  0.00    +0.000 A 
ATOM      7  C   UNL     1     -24.445 -43.569  25.466  0.00  0.00    +0.000 C 
ATOM      8  C   UNL     1     -25.302 -43.812  26.692  0.00  0.00    +0.000 A 
ATOM      9  C   UNL     1     -24.721 -43.484  27.861  0.00  0.00    +0.000 A 
ATOM     10  C   UNL     1     -23.317 -42.931  27.740  0.00  0.00    +0.000 C 
ATOM     11  C   UNL     1     -24.107 -42.064  25.480  0.00  0.00    +0.000 C 
ATOM     12  C   UNL     1     -23.429 -41.684  26.837  0.00  0.00    +0.000 C 
ATOM     13  C   UNL     1     -26.550 -44.305  26.672  0.00  0.00    +0.000 A 
ATOM     14  C   UNL     1     -27.212 -44.472  27.828  0.00  0.00    +0.000 A 
ATOM     15  C   UNL     1     -22.072 -41.141  26.422  0.00  0.00    +0.000 C 
ATOM     16  C   UNL     1     -26.633 -44.146  28.995  0.00  0.00    +0.000 A 
ATOM     17  C   UNL     1     -25.385 -43.649  29.015  0.00  0.00    +0.000 A 
ATOM     18  C   UNL     1     -23.064 -41.692  24.436  0.00  0.00    +0.000 C 
ATOM     19  N   UNL     1     -21.956 -41.169  25.055  0.00  0.00    +0.000 N 
ATOM     20  O   UNL     1     -21.200 -40.774  27.173  0.00  0.00    +0.000 OA
ATOM     21  O   UNL     1     -23.177 -41.859  23.246  0.00  0.00    +0.000 OA
ENDROOT
BRANCH  19  22
ATOM     22  C   UNL     1     -20.743 -40.767  24.352  0.00  0.00    +0.000 C 
BRANCH  22  23
ATOM     23  C   UNL     1     -19.685 -41.843  24.567  0.00  0.00    +0.000 C 
ATOM     24  C   UNL     1     -18.553 -41.835  23.740  0.00  0.00    +0.000 C 
ATOM     35  O   UNL     1     -19.682 -42.813  23.370  0.00  0.00    +0.000 OA
BRANCH  24  25
ATOM     25  C   UNL     1     -17.399 -42.444  24.397  0.00  0.00    +0.000 A 
ATOM     26  C   UNL     1     -17.358 -42.439  25.742  0.00  0.00    +0.000 A 
ATOM     27  C   UNL     1     -16.327 -42.975  26.413  0.00  0.00    +0.000 A 
ATOM     28  C   UNL     1     -15.303 -43.556  25.766  0.00  0.00    +0.000 A 
ATOM     29  C   UNL     1     -15.321 -43.523  24.422  0.00  0.00    +0.000 A 
ATOM     30  C   UNL     1     -16.353 -42.988  23.748  0.00  0.00    +0.000 A 
BRANCH  28  31
ATOM     31  C   UNL     1     -14.118 -44.115  26.519  0.00  0.00    +0.000 C 
ATOM     32  F   UNL     1     -13.718 -45.285  26.048  0.00  0.00    +0.000 F 
ATOM     33  F   UNL     1     -14.456 -44.299  27.786  0.00  0.00    +0.000 F 
ATOM     34  F   UNL     1     -13.075 -43.299  26.508  0.00  0.00    +0.000 F 
ENDBRANCH  28  31
ENDBRANCH  24  25
ENDBRANCH  22  23
ENDBRANCH  19  22
TORSDOF 4
ENDMDL
MODEL 5
REMARK VINA RESULT:      -9.7      5.343      8.452
REMARK  Name = Fragment
REMARK  4 active torsions:
REMARK  status: ('A' for Active; 'I' for Inactive)
REMARK    1  A    between atoms: N_19  and  C_22
REMARK    2  A    between atoms: C_22  and  C_23
REMARK    3  A    between atoms: C_24  and  C_25
REMARK    4  A    between atoms: C_28  and  C_31
REMARK                            x       y       z     vdW  Elec       q    Type
REMARK                         _______ _______ _______ _____ _____    ______ ____
ROOT
ATOM      1  C   UNL     1     -21.620 -45.549  25.426  0.00  0.00    +0.000 A 
ATOM      2  C   UNL     1     -21.854 -45.321  26.729  0.00  0.00    +0.000 A 
ATOM      3  C   UNL     1     -21.267 -44.286  27.350  0.00  0.00    +0.000 A 
ATOM      4  C   UNL     1     -20.444 -43.483  26.659  0.00  0.00    +0.000 A 
ATOM      5  C   UNL     1     -20.218 -43.706  25.353  0.00  0.00    +0.000 A 
ATOM      6  C   UNL     1     -20.807 -44.738  24.731  0.00  0.00    +0.000 A 
ATOM      7  C   UNL     1     -19.730 -42.275  27.233  0.00  0.00    +0.000 C 
ATOM      8  C   UNL     1     -18.275 -42.478  26.863  0.00  0.00    +0.000 A 
ATOM      9  C   UNL     1     -18.050 -42.700  25.555  0.00  0.00    +0.000 A 
ATOM     10  C   UNL     1     -19.292 -42.706  24.689  0.00  0.00    +0.000 C 
ATOM     11  C   UNL     1     -20.211 -41.065  26.404  0.00  0.00    +0.000 C 
ATOM     12  C   UNL     1     -19.952 -41.325  24.884  0.00  0.00    +0.000 C 
ATOM     13  C   UNL     1     -17.250 -42.441  27.728  0.00  0.00    +0.000 A 
ATOM     14  C   UNL     1     -16.000 -42.632  27.279  0.00  0.00    +0.000 A 
ATOM     15  C   UNL     1     -21.338 -41.249  24.265  0.00  0.00    +0.000 C 
ATOM     16  C   UNL     1     -15.775 -42.854  25.974  0.00  0.00    +0.000 A 
ATOM     17  C   UNL     1     -16.799 -42.888  25.107  0.00  0.00    +0.000 A 
ATOM     18  C   UNL     1     -21.717 -40.864  26.487  0.00  0.00    +0.000 C 
ATOM     19  N   UNL     1     -22.268 -40.972  25.234  0.00  0.00    +0.000 N 
ATOM     20  O   UNL     1     -21.602 -41.441  23.102  0.00  0.00    +0.000 OA
ATOM     21  O   UNL     1     -22.340 -40.670  27.502  0.00  0.00    +0.000 OA
ENDROOT
BRANCH  19  22
ATOM     22  C   UNL     1     -23.699 -40.894  24.964  0.00  0.00    +0.000 C 
BRANCH  22  23
ATOM     23  C   UNL     1     -24.285 -39.768  25.810  0.00  0.00    +0.000 C 
ATOM     24  C   UNL     1     -25.595 -39.912  26.291  0.00  0.00    +0.000 C 
ATOM     35  O   UNL     1     -25.405 -39.059  25.024  0.00  0.00    +0.000 OA
BRANCH  24  25
ATOM     25  C   UNL     1     -25.806 -39.154  27.520  0.00  0.00    +0.000 A 
ATOM     26  C   UNL     1     -24.811 -38.358  27.955  0.00  0.00    +0.000 A 
ATOM     27  C   UNL     1     -24.933 -37.636  29.079  0.00  0.00    +0.000 A 
ATOM     28  C   UNL     1     -26.062 -37.665  29.806  0.00  0.00    +0.000 A 
ATOM     29  C   UNL     1     -27.040 -38.493  29.397  0.00  0.00    +0.000 A 
ATOM     30  C   UNL     1     -26.920 -39.216  28.272  0.00  0.00    +0.000 A 
BRANCH  28  31
ATOM     31  C   UNL     1     -26.181 -36.892  31.099  0.00  0.00    +0.000 C 
ATOM     32  F   UNL     1     -26.592 -37.643  32.108  0.00  0.00    +0.000 F 
ATOM     33  F   UNL     1     -27.070 -35.923  30.946  0.00  0.00    +0.000 F 
ATOM     34  F   UNL     1     -25.041 -36.323  31.460  0.00  0.00    +0.000 F 
ENDBRANCH  28  31
ENDBRANCH  24  25
ENDBRANCH  22  23
ENDBRANCH  19  22
TORSDOF 4
ENDMDL
MODEL 6
REMARK VINA RESULT:      -9.6      4.797      7.695
REMARK  Name = Fragment
REMARK  4 active torsions:
REMARK  status: ('A' for Active; 'I' for Inactive)
REMARK    1  A    between atoms: N_19  and  C_22
REMARK    2  A    between atoms: C_22  and  C_23
REMARK    3  A    between atoms: C_24  and  C_25
REMARK    4  A    between atoms: C_28  and  C_31
REMARK                            x       y       z     vdW  Elec       q    Type
REMARK                         _______ _______ _______ _____ _____    ______ ____
ROOT
ATOM      1  C   UNL     1     -22.526 -40.128  26.470  0.00  0.00    +0.000 A 
ATOM      2  C   UNL     1     -22.745 -40.335  25.161  0.00  0.00    +0.000 A 
ATOM      3  C   UNL     1     -22.098 -41.317  24.515  0.00  0.00    +0.000 A 
ATOM      4  C   UNL     1     -21.229 -42.088  25.186  0.00  0.00    +0.000 A 
ATOM      5  C   UNL     1     -21.016 -41.885  26.499  0.00  0.00    +0.000 A 
ATOM      6  C   UNL     1     -21.666 -40.907  27.146  0.00  0.00    +0.000 A 
ATOM      7  C   UNL     1     -20.444 -43.236  24.584  0.00  0.00    +0.000 C 
ATOM      8  C   UNL     1     -19.004 -42.957  24.961  0.00  0.00    +0.000 A 
ATOM      9  C   UNL     1     -18.793 -42.756  26.275  0.00  0.00    +0.000 A 
ATOM     10  C   UNL     1     -20.033 -42.846  27.139  0.00  0.00    +0.000 C 
ATOM     11  C   UNL     1     -20.853 -44.493  25.380  0.00  0.00    +0.000 C 
ATOM     12  C   UNL     1     -20.610 -44.258  26.907  0.00  0.00    +0.000 C 
ATOM     13  C   UNL     1     -17.979 -42.911  24.097  0.00  0.00    +0.000 A 
ATOM     14  C   UNL     1     -16.741 -42.657  24.553  0.00  0.00    +0.000 A 
ATOM     15  C   UNL     1     -21.989 -44.432  27.521  0.00  0.00    +0.000 C 
ATOM     16  C   UNL     1     -16.530 -42.456  25.864  0.00  0.00    +0.000 A 
ATOM     17  C   UNL     1     -17.556 -42.505  26.730  0.00  0.00    +0.000 A 
ATOM     18  C   UNL     1     -22.344 -44.781  25.288  0.00  0.00    +0.000 C 
ATOM     19  N   UNL     1     -22.900 -44.739  26.543  0.00  0.00    +0.000 N 
ATOM     20  O   UNL     1     -22.264 -44.286  28.688  0.00  0.00    +0.000 OA
ATOM     21  O   UNL     1     -22.954 -44.986  24.268  0.00  0.00    +0.000 OA
ENDROOT
BRANCH  19  22
ATOM     22  C   UNL     1     -24.325 -44.909  26.808  0.00  0.00    +0.000 C 
BRANCH  22  23
ATOM     23  C   UNL     1     -24.966 -43.527  26.886  0.00  0.00    +0.000 C 
ATOM     24  C   UNL     1     -25.464 -43.095  28.123  0.00  0.00    +0.000 C 
ATOM     35  O   UNL     1     -26.481 -43.672  27.123  0.00  0.00    +0.000 OA
BRANCH  24  25
ATOM     25  C   UNL     1     -25.460 -41.639  28.229  0.00  0.00    +0.000 A 
ATOM     26  C   UNL     1     -26.060 -40.929  27.255  0.00  0.00    +0.000 A 
ATOM     27  C   UNL     1     -26.092 -39.588  27.284  0.00  0.00    +0.000 A 
ATOM     28  C   UNL     1     -25.539 -38.901  28.297  0.00  0.00    +0.000 A 
ATOM     29  C   UNL     1     -24.900 -39.606  29.248  0.00  0.00    +0.000 A 
ATOM     30  C   UNL     1     -24.869 -40.948  29.222  0.00  0.00    +0.000 A 
BRANCH  28  31
ATOM     31  C   UNL     1     -25.529 -37.390  28.304  0.00  0.00    +0.000 C 
ATOM     32  F   UNL     1     -26.735 -36.869  28.147  0.00  0.00    +0.000 F 
ATOM     33  F   UNL     1     -24.782 -36.956  27.300  0.00  0.00    +0.000 F 
ATOM     34  F   UNL     1     -25.017 -36.888  29.417  0.00  0.00    +0.000 F 
ENDBRANCH  28  31
ENDBRANCH  24  25
ENDBRANCH  22  23
ENDBRANCH  19  22
TORSDOF 4
ENDMDL
MODEL 7
REMARK VINA RESULT:      -9.5     26.134     28.488
REMARK  Name = Fragment
REMARK  4 active torsions:
REMARK  status: ('A' for Active; 'I' for Inactive)
REMARK    1  A    between atoms: N_19  and  C_22
REMARK    2  A    between atoms: C_22  and  C_23
REMARK    3  A    between atoms: C_24  and  C_25
REMARK    4  A    between atoms: C_28  and  C_31
REMARK                            x       y       z     vdW  Elec       q    Type
REMARK                         _______ _______ _______ _____ _____    ______ ____
ROOT
ATOM      1  C   UNL     1      -1.207 -57.825  11.718  0.00  0.00    +0.000 A 
ATOM      2  C   UNL     1      -0.636 -58.982  11.344  0.00  0.00    +0.000 A 
ATOM      3  C   UNL     1      -1.396 -60.004  10.919  0.00  0.00    +0.000 A 
ATOM      4  C   UNL     1      -2.730 -59.860  10.873  0.00  0.00    +0.000 A 
ATOM      5  C   UNL     1      -3.299 -58.697  11.240  0.00  0.00    +0.000 A 
ATOM      6  C   UNL     1      -2.540 -57.675  11.660  0.00  0.00    +0.000 A 
ATOM      7  C   UNL     1      -3.700 -60.924  10.403  0.00  0.00    +0.000 C 
ATOM      8  C   UNL     1      -4.719 -61.036  11.519  0.00  0.00    +0.000 A 
ATOM      9  C   UNL     1      -5.288 -59.873  11.883  0.00  0.00    +0.000 A 
ATOM     10  C   UNL     1      -4.809 -58.662  11.111  0.00  0.00    +0.000 C 
ATOM     11  C   UNL     1      -4.454 -60.311   9.204  0.00  0.00    +0.000 C 
ATOM     12  C   UNL     1      -5.114 -58.957   9.628  0.00  0.00    +0.000 C 
ATOM     13  C   UNL     1      -5.069 -62.180  12.127  0.00  0.00    +0.000 A 
ATOM     14  C   UNL     1      -5.990 -62.153  13.104  0.00  0.00    +0.000 A 
ATOM     15  C   UNL     1      -4.482 -57.941   8.690  0.00  0.00    +0.000 C 
ATOM     16  C   UNL     1      -6.558 -60.992  13.468  0.00  0.00    +0.000 A 
ATOM     17  C   UNL     1      -6.210 -59.847  12.858  0.00  0.00    +0.000 A 
ATOM     18  C   UNL     1      -3.522 -59.922   8.067  0.00  0.00    +0.000 C 
ATOM     19  N   UNL     1      -3.612 -58.571   7.837  0.00  0.00    +0.000 N 
ATOM     20  O   UNL     1      -4.678 -56.750   8.706  0.00  0.00    +0.000 OA
ATOM     21  O   UNL     1      -2.789 -60.676   7.475  0.00  0.00    +0.000 OA
ENDROOT
BRANCH  19  22
ATOM     22  C   UNL     1      -2.804 -57.857   6.855  0.00  0.00    +0.000 C 
BRANCH  22  23
ATOM     23  C   UNL     1      -1.487 -57.462   7.513  0.00  0.00    +0.000 C 
ATOM     24  C   UNL     1      -1.155 -56.101   7.571  0.00  0.00    +0.000 C 
ATOM     35  O   UNL     1      -0.513 -56.929   6.445  0.00  0.00    +0.000 OA
BRANCH  24  25
ATOM     25  C   UNL     1      -0.276 -55.806   8.699  0.00  0.00    +0.000 A 
ATOM     26  C   UNL     1      -0.625 -54.809   9.533  0.00  0.00    +0.000 A 
ATOM     27  C   UNL     1       0.136 -54.479  10.587  0.00  0.00    +0.000 A 
ATOM     28  C   UNL     1       1.270 -55.145  10.862  0.00  0.00    +0.000 A 
ATOM     29  C   UNL     1       1.642 -56.112  10.006  0.00  0.00    +0.000 A 
ATOM     30  C   UNL     1       0.881 -56.445   8.951  0.00  0.00    +0.000 A 
BRANCH  28  31
ATOM     31  C   UNL     1       2.154 -54.741  12.020  0.00  0.00    +0.000 C 
ATOM     32  F   UNL     1       2.098 -55.596  13.028  0.00  0.00    +0.000 F 
ATOM     33  F   UNL     1       1.756 -53.565  12.481  0.00  0.00    +0.000 F 
ATOM     34  F   UNL     1       3.425 -54.614  11.671  0.00  0.00    +0.000 F 
ENDBRANCH  28  31
ENDBRANCH  24  25
ENDBRANCH  22  23
ENDBRANCH  19  22
TORSDOF 4
ENDMDL
MODEL 8
REMARK VINA RESULT:      -9.3      5.052      8.907
REMARK  Name = Fragment
REMARK  4 active torsions:
REMARK  status: ('A' for Active; 'I' for Inactive)
REMARK    1  A    between atoms: N_19  and  C_22
REMARK    2  A    between atoms: C_22  and  C_23
REMARK    3  A    between atoms: C_24  and  C_25
REMARK    4  A    between atoms: C_28  and  C_31
REMARK                            x       y       z     vdW  Elec       q    Type
REMARK                         _______ _______ _______ _____ _____    ______ ____
ROOT
ATOM      1  C   UNL     1     -22.194 -43.433  20.474  0.00  0.00    +0.000 A 
ATOM      2  C   UNL     1     -23.235 -42.964  21.182  0.00  0.00    +0.000 A 
ATOM      3  C   UNL     1     -23.041 -42.051  22.146  0.00  0.00    +0.000 A 
ATOM      4  C   UNL     1     -21.798 -41.613  22.398  0.00  0.00    +0.000 A 
ATOM      5  C   UNL     1     -20.757 -42.076  21.683  0.00  0.00    +0.000 A 
ATOM      6  C   UNL     1     -20.952 -42.985  20.716  0.00  0.00    +0.000 A 
ATOM      7  C   UNL     1     -21.441 -40.577  23.445  0.00  0.00    +0.000 C 
ATOM      8  C   UNL     1     -20.341 -41.223  24.264  0.00  0.00    +0.000 A 
ATOM      9  C   UNL     1     -19.300 -41.684  23.547  0.00  0.00    +0.000 A 
ATOM     10  C   UNL     1     -19.415 -41.475  22.052  0.00  0.00    +0.000 C 
ATOM     11  C   UNL     1     -20.772 -39.415  22.682  0.00  0.00    +0.000 C 
ATOM     12  C   UNL     1     -19.564 -39.953  21.847  0.00  0.00    +0.000 C 
ATOM     13  C   UNL     1     -20.347 -41.344  25.600  0.00  0.00    +0.000 A 
ATOM     14  C   UNL     1     -19.310 -41.933  26.215  0.00  0.00    +0.000 A 
ATOM     15  C   UNL     1     -19.926 -39.590  20.416  0.00  0.00    +0.000 C 
ATOM     16  C   UNL     1     -18.271 -42.395  25.500  0.00  0.00    +0.000 A 
ATOM     17  C   UNL     1     -18.262 -42.271  24.162  0.00  0.00    +0.000 A 
ATOM     18  C   UNL     1     -21.691 -38.799  21.639  0.00  0.00    +0.000 C 
ATOM     19  N   UNL     1     -21.130 -38.931  20.392  0.00  0.00    +0.000 N 
ATOM     20  O   UNL     1     -19.281 -39.867  19.434  0.00  0.00    +0.000 OA
ATOM     21  O   UNL     1     -22.765 -38.297  21.863  0.00  0.00    +0.000 OA
ENDROOT
BRANCH  19  22
ATOM     22  C   UNL     1     -21.777 -38.503  19.158  0.00  0.00    +0.000 C 
BRANCH  22  23
ATOM     23  C   UNL     1     -22.951 -39.438  18.883  0.00  0.00    +0.000 C 
ATOM     24  C   UNL     1     -23.660 -39.278  17.684  0.00  0.00    +0.000 C 
ATOM     35  O   UNL     1     -24.271 -38.645  18.947  0.00  0.00    +0.000 OA
BRANCH  24  25
ATOM     25  C   UNL     1     -24.285 -40.526  17.255  0.00  0.00    +0.000 A 
ATOM     26  C   UNL     1     -24.766 -40.597  16.000  0.00  0.00    +0.000 A 
ATOM     27  C   UNL     1     -25.357 -41.710  15.539  0.00  0.00    +0.000 A 
ATOM     28  C   UNL     1     -25.476 -42.805  16.309  0.00  0.00    +0.000 A 
ATOM     29  C   UNL     1     -25.036 -42.720  17.576  0.00  0.00    +0.000 A 
ATOM     30  C   UNL     1     -24.443 -41.608  18.039  0.00  0.00    +0.000 A 
BRANCH  28  31
ATOM     31  C   UNL     1     -26.187 -44.040  15.807  0.00  0.00    +0.000 C 
ATOM     32  F   UNL     1     -25.784 -44.408  14.601  0.00  0.00    +0.000 F 
ATOM     33  F   UNL     1     -27.485 -43.792  15.727  0.00  0.00    +0.000 F 
ATOM     34  F   UNL     1     -26.036 -45.079  16.614  0.00  0.00    +0.000 F 
ENDBRANCH  28  31
ENDBRANCH  24  25
ENDBRANCH  22  23
ENDBRANCH  19  22
TORSDOF 4
ENDMDL
MODEL 9
REMARK VINA RESULT:      -9.3     26.187     28.952
REMARK  Name = Fragment
REMARK  4 active torsions:
REMARK  status: ('A' for Active; 'I' for Inactive)
REMARK    1  A    between atoms: N_19  and  C_22
REMARK    2  A    between atoms: C_22  and  C_23
REMARK    3  A    between atoms: C_24  and  C_25
REMARK    4  A    between atoms: C_28  and  C_31
REMARK                            x       y       z     vdW  Elec       q    Type
REMARK                         _______ _______ _______ _____ _____    ______ ____
ROOT
ATOM      1  C   UNL     1       1.241 -57.141  16.329  0.00  0.00    +0.000 A 
ATOM      2  C   UNL     1       2.474 -56.976  15.820  0.00  0.00    +0.000 A 
ATOM      3  C   UNL     1       3.451 -56.448  16.574  0.00  0.00    +0.000 A 
ATOM      4  C   UNL     1       3.186 -56.084  17.838  0.00  0.00    +0.000 A 
ATOM      5  C   UNL     1       1.954 -56.258  18.349  0.00  0.00    +0.000 A 
ATOM      6  C   UNL     1       0.978 -56.790  17.598  0.00  0.00    +0.000 A 
ATOM      7  C   UNL     1       4.196 -55.490  18.798  0.00  0.00    +0.000 C 
ATOM      8  C   UNL     1       3.537 -54.229  19.318  0.00  0.00    +0.000 A 
ATOM      9  C   UNL     1       2.306 -54.405  19.831  0.00  0.00    +0.000 A 
ATOM     10  C   UNL     1       1.801 -55.832  19.796  0.00  0.00    +0.000 C 
ATOM     11  C   UNL     1       4.260 -56.458  19.999  0.00  0.00    +0.000 C 
ATOM     12  C   UNL     1       2.828 -56.664  20.592  0.00  0.00    +0.000 C 
ATOM     13  C   UNL     1       4.094 -53.009  19.302  0.00  0.00    +0.000 A 
ATOM     14  C   UNL     1       3.411 -51.964  19.797  0.00  0.00    +0.000 A 
ATOM     15  C   UNL     1       2.595 -58.160  20.457  0.00  0.00    +0.000 C 
ATOM     16  C   UNL     1       2.182 -52.139  20.307  0.00  0.00    +0.000 A 
ATOM     17  C   UNL     1       1.624 -53.361  20.327  0.00  0.00    +0.000 A 
ATOM     18  C   UNL     1       4.692 -57.859  19.594  0.00  0.00    +0.000 C 
ATOM     19  N   UNL     1       3.699 -58.756  19.901  0.00  0.00    +0.000 N 
ATOM     20  O   UNL     1       1.582 -58.746  20.755  0.00  0.00    +0.000 OA
ATOM     21  O   UNL     1       5.735 -58.141  19.057  0.00  0.00    +0.000 OA
ENDROOT
BRANCH  19  22
ATOM     22  C   UNL     1       3.761 -60.180  19.589  0.00  0.00    +0.000 C 
BRANCH  22  23
ATOM     23  C   UNL     1       3.020 -60.415  18.277  0.00  0.00    +0.000 C 
ATOM     24  C   UNL     1       1.808 -61.119  18.317  0.00  0.00    +0.000 C 
ATOM     35  O   UNL     1       3.064 -61.913  17.919  0.00  0.00    +0.000 OA
BRANCH  24  25
ATOM     25  C   UNL     1       0.933 -60.752  17.207  0.00  0.00    +0.000 A 
ATOM     26  C   UNL     1      -0.314 -60.334  17.492  0.00  0.00    +0.000 A 
ATOM     27  C   UNL     1      -1.174 -59.984  16.524  0.00  0.00    +0.000 A 
ATOM     28  C   UNL     1      -0.817 -60.021  15.229  0.00  0.00    +0.000 A 
ATOM     29  C   UNL     1       0.413 -60.481  14.940  0.00  0.00    +0.000 A 
ATOM     30  C   UNL     1       1.276 -60.829  15.908  0.00  0.00    +0.000 A 
BRANCH  28  31
ATOM     31  C   UNL     1      -1.802 -59.677  14.135  0.00  0.00    +0.000 C 
ATOM     32  F   UNL     1      -3.005 -60.182  14.354  0.00  0.00    +0.000 F 
ATOM     33  F   UNL     1      -1.369 -60.178  12.988  0.00  0.00    +0.000 F 
ATOM     34  F   UNL     1      -1.939 -58.371  13.965  0.00  0.00    +0.000 F 
ENDBRANCH  28  31
ENDBRANCH  24  25
ENDBRANCH  22  23
ENDBRANCH  19  22
TORSDOF 4
ENDMDL
MODEL 10
REMARK VINA RESULT:      -9.3      5.219      7.827
REMARK  Name = Fragment
REMARK  4 active torsions:
REMARK  status: ('A' for Active; 'I' for Inactive)
REMARK    1  A    between atoms: N_19  and  C_22
REMARK    2  A    between atoms: C_22  and  C_23
REMARK    3  A    between atoms: C_24  and  C_25
REMARK    4  A    between atoms: C_28  and  C_31
REMARK                            x       y       z     vdW  Elec       q    Type
REMARK                         _______ _______ _______ _____ _____    ______ ____
ROOT
ATOM      1  C   UNL     1     -22.129 -45.328  24.821  0.00  0.00    +0.000 A 
ATOM      2  C   UNL     1     -21.956 -45.246  26.151  0.00  0.00    +0.000 A 
ATOM      3  C   UNL     1     -21.141 -44.314  26.670  0.00  0.00    +0.000 A 
ATOM      4  C   UNL     1     -20.501 -43.467  25.849  0.00  0.00    +0.000 A 
ATOM      5  C   UNL     1     -20.682 -43.545  24.519  0.00  0.00    +0.000 A 
ATOM      6  C   UNL     1     -21.498 -44.474  24.000  0.00  0.00    +0.000 A 
ATOM      7  C   UNL     1     -19.566 -42.363  26.302  0.00  0.00    +0.000 C 
ATOM      8  C   UNL     1     -18.300 -42.577  25.497  0.00  0.00    +0.000 A 
ATOM      9  C   UNL     1     -18.483 -42.653  24.166  0.00  0.00    +0.000 A 
ATOM     10  C   UNL     1     -19.921 -42.511  23.713  0.00  0.00    +0.000 C 
ATOM     11  C   UNL     1     -20.180 -41.047  25.780  0.00  0.00    +0.000 C 
ATOM     12  C   UNL     1     -20.395 -41.138  24.233  0.00  0.00    +0.000 C 
ATOM     13  C   UNL     1     -17.068 -42.681  26.017  0.00  0.00    +0.000 A 
ATOM     14  C   UNL     1     -16.020 -42.866  25.199  0.00  0.00    +0.000 A 
ATOM     15  C   UNL     1     -21.892 -40.937  24.066  0.00  0.00    +0.000 C 
ATOM     16  C   UNL     1     -16.202 -42.943  23.871  0.00  0.00    +0.000 A 
ATOM     17  C   UNL     1     -17.434 -42.836  23.349  0.00  0.00    +0.000 A 
ATOM     18  C   UNL     1     -21.578 -40.799  26.327  0.00  0.00    +0.000 C 
ATOM     19  N   UNL     1     -22.476 -40.739  25.291  0.00  0.00    +0.000 N 
ATOM     20  O   UNL     1     -22.497 -40.980  23.021  0.00  0.00    +0.000 OA
ATOM     21  O   UNL     1     -21.863 -40.701  27.496  0.00  0.00    +0.000 OA
ENDROOT
BRANCH  19  22
ATOM     22  C   UNL     1     -23.915 -40.575  25.469  0.00  0.00    +0.000 C 
BRANCH  22  23
ATOM     23  C   UNL     1     -24.147 -39.554  26.578  0.00  0.00    +0.000 C 
ATOM     24  C   UNL     1     -25.310 -39.670  27.354  0.00  0.00    +0.000 C 
ATOM     35  O   UNL     1     -25.335 -38.646  26.206  0.00  0.00    +0.000 OA
BRANCH  24  25
ATOM     25  C   UNL     1     -25.130 -39.100  28.686  0.00  0.00    +0.000 A 
ATOM     26  C   UNL     1     -25.369 -39.887  29.751  0.00  0.00    +0.000 A 
ATOM     27  C   UNL     1     -25.228 -39.430  31.005  0.00  0.00    +0.000 A 
ATOM     28  C   UNL     1     -24.826 -38.171  31.246  0.00  0.00    +0.000 A 
ATOM     29  C   UNL     1     -24.629 -37.370  30.183  0.00  0.00    +0.000 A 
ATOM     30  C   UNL     1     -24.768 -37.827  28.927  0.00  0.00    +0.000 A 
BRANCH  28  31
ATOM     31  C   UNL     1     -24.717 -37.640  32.656  0.00  0.00    +0.000 C 
ATOM     32  F   UNL     1     -23.836 -36.658  32.767  0.00  0.00    +0.000 F 
ATOM     33  F   UNL     1     -24.319 -38.615  33.458  0.00  0.00    +0.000 F 
ATOM     34  F   UNL     1     -25.873 -37.196  33.125  0.00  0.00    +0.000 F 
ENDBRANCH  28  31
ENDBRANCH  24  25
ENDBRANCH  22  23
ENDBRANCH  19  22
TORSDOF 4
ENDMDL
