MODEL 1
REMARK VINA RESULT:     -12.1      0.000      0.000
REMARK  Name = Fragment
REMARK  5 active torsions:
REMARK  status: ('A' for Active; 'I' for Inactive)
REMARK    1  A    between atoms: N_19  and  C_22
REMARK    2  A    between atoms: C_22  and  C_23
REMARK    3  A    between atoms: C_24  and  C_25
REMARK    4  A    between atoms: C_28  and  O_31
REMARK    5  A    between atoms: O_31  and  C_32
REMARK                            x       y       z     vdW  Elec       q    Type
REMARK                         _______ _______ _______ _____ _____    ______ ____
ROOT
ATOM      1  C   UNL     1     -21.430 -45.416  25.823  0.00  0.00    +0.000 A 
ATOM      2  C   UNL     1     -21.787 -45.286  24.535  0.00  0.00    +0.000 A 
ATOM      3  C   UNL     1     -21.864 -44.070  23.972  0.00  0.00    +0.000 A 
ATOM      4  C   UNL     1     -21.586 -42.984  24.708  0.00  0.00    +0.000 A 
ATOM      5  C   UNL     1     -21.228 -43.113  25.999  0.00  0.00    +0.000 A 
ATOM      6  C   UNL     1     -21.147 -44.329  26.560  0.00  0.00    +0.000 A 
ATOM      7  C   UNL     1     -21.617 -41.558  24.197  0.00  0.00    +0.000 C 
ATOM      8  C   UNL     1     -22.503 -40.820  25.180  0.00  0.00    +0.000 A 
ATOM      9  C   UNL     1     -22.146 -40.948  26.471  0.00  0.00    +0.000 A 
ATOM     10  C   UNL     1     -20.921 -41.810  26.708  0.00  0.00    +0.000 C 
ATOM     11  C   UNL     1     -20.196 -40.996  24.409  0.00  0.00    +0.000 C 
ATOM     12  C   UNL     1     -19.779 -41.148  25.909  0.00  0.00    +0.000 C 
ATOM     13  C   UNL     1     -23.567 -40.075  24.844  0.00  0.00    +0.000 A 
ATOM     14  C   UNL     1     -24.274 -39.461  25.808  0.00  0.00    +0.000 A 
ATOM     15  C   UNL     1     -18.522 -42.001  25.851  0.00  0.00    +0.000 C 
ATOM     16  C   UNL     1     -23.917 -39.591  27.097  0.00  0.00    +0.000 A 
ATOM     17  C   UNL     1     -22.850 -40.334  27.432  0.00  0.00    +0.000 A 
ATOM     18  C   UNL     1     -19.129 -41.776  23.657  0.00  0.00    +0.000 C 
ATOM     19  N   UNL     1     -18.237 -42.320  24.547  0.00  0.00    +0.000 N 
ATOM     20  O   UNL     1     -17.872 -42.354  26.805  0.00  0.00    +0.000 OA
ATOM     21  O   UNL     1     -19.071 -41.911  22.458  0.00  0.00    +0.000 OA
ENDROOT
BRANCH  19  22
ATOM     22  C   UNL     1     -17.093 -43.125  24.141  0.00  0.00    +0.000 C 
BRANCH  22  23
ATOM     23  C   UNL     1     -16.098 -43.186  25.275  0.00  0.00    +0.000 C 
ATOM     24  C   UNL     1     -14.933 -43.851  25.204  0.00  0.00    +0.000 C 
BRANCH  24  25
ATOM     25  C   UNL     1     -13.982 -43.953  26.155  0.00  0.00    +0.000 A 
ATOM     26  C   UNL     1     -13.891 -45.086  26.877  0.00  0.00    +0.000 A 
ATOM     27  C   UNL     1     -12.962 -45.237  27.834  0.00  0.00    +0.000 A 
ATOM     28  C   UNL     1     -12.066 -44.278  28.135  0.00  0.00    +0.000 A 
ATOM     29  C   UNL     1     -12.166 -43.146  27.410  0.00  0.00    +0.000 A 
ATOM     30  C   UNL     1     -13.092 -42.987  26.450  0.00  0.00    +0.000 A 
BRANCH  28  31
ATOM     31  O   UNL     1     -11.155 -44.520  29.132  0.00  0.00    +0.000 OA
BRANCH  31  32
ATOM     32  C   UNL     1     -10.549 -45.814  29.251  0.00  0.00    +0.000 C 
ATOM     33  F   UNL     1     -10.425 -46.445  28.089  0.00  0.00    +0.000 F 
ATOM     34  F   UNL     1     -11.200 -46.626  30.074  0.00  0.00    +0.000 F 
ATOM     35  F   UNL     1      -9.317 -45.705  29.742  0.00  0.00    +0.000 F 
ENDBRANCH  31  32
ENDBRANCH  28  31
ENDBRANCH  24  25
ENDBRANCH  22  23
ENDBRANCH  19  22
TORSDOF 5
ENDMDL
MODEL 2
REMARK VINA RESULT:     -11.6      3.620      5.602
REMARK  Name = Fragment
REMARK  5 active torsions:
REMARK  status: ('A' for Active; 'I' for Inactive)
REMARK    1  A    between atoms: N_19  and  C_22
REMARK    2  A    between atoms: C_22  and  C_23
REMARK    3  A    between atoms: C_24  and  C_25
REMARK    4  A    between atoms: C_28  and  O_31
REMARK    5  A    between atoms: O_31  and  C_32
REMARK                            x       y       z     vdW  Elec       q    Type
REMARK                         _______ _______ _______ _____ _____    ______ ____
ROOT
ATOM      1  C   UNL     1     -20.957 -44.948  28.160  0.00  0.00    +0.000 A 
ATOM      2  C   UNL     1     -20.853 -45.187  26.842  0.00  0.00    +0.000 A 
ATOM      3  C   UNL     1     -21.945 -45.158  26.061  0.00  0.00    +0.000 A 
ATOM      4  C   UNL     1     -23.140 -44.895  26.608  0.00  0.00    +0.000 A 
ATOM      5  C   UNL     1     -23.244 -44.655  27.928  0.00  0.00    +0.000 A 
ATOM      6  C   UNL     1     -22.153 -44.678  28.708  0.00  0.00    +0.000 A 
ATOM      7  C   UNL     1     -24.445 -44.815  25.843  0.00  0.00    +0.000 C 
ATOM      8  C   UNL     1     -25.381 -45.747  26.587  0.00  0.00    +0.000 A 
ATOM      9  C   UNL     1     -25.485 -45.508  27.907  0.00  0.00    +0.000 A 
ATOM     10  C   UNL     1     -24.647 -44.349  28.411  0.00  0.00    +0.000 C 
ATOM     11  C   UNL     1     -24.995 -43.393  26.078  0.00  0.00    +0.000 C 
ATOM     12  C   UNL     1     -25.113 -43.114  27.614  0.00  0.00    +0.000 C 
ATOM     13  C   UNL     1     -26.081 -46.742  26.023  0.00  0.00    +0.000 A 
ATOM     14  C   UNL     1     -26.885 -47.500  26.788  0.00  0.00    +0.000 A 
ATOM     15  C   UNL     1     -24.228 -41.897  27.830  0.00  0.00    +0.000 C 
ATOM     16  C   UNL     1     -26.989 -47.261  28.106  0.00  0.00    +0.000 A 
ATOM     17  C   UNL     1     -26.290 -46.262  28.670  0.00  0.00    +0.000 A 
ATOM     18  C   UNL     1     -24.056 -42.303  25.585  0.00  0.00    +0.000 C 
ATOM     19  N   UNL     1     -23.662 -41.517  26.638  0.00  0.00    +0.000 N 
ATOM     20  O   UNL     1     -24.040 -41.348  28.889  0.00  0.00    +0.000 OA
ATOM     21  O   UNL     1     -23.697 -42.149  24.442  0.00  0.00    +0.000 OA
ENDROOT
BRANCH  19  22
ATOM     22  C   UNL     1     -22.761 -40.380  26.495  0.00  0.00    +0.000 C 
BRANCH  22  23
ATOM     23  C   UNL     1     -21.364 -40.800  26.884  0.00  0.00    +0.000 C 
ATOM     24  C   UNL     1     -20.538 -41.473  26.065  0.00  0.00    +0.000 C 
BRANCH  24  25
ATOM     25  C   UNL     1     -19.277 -41.879  26.318  0.00  0.00    +0.000 A 
ATOM     26  C   UNL     1     -18.864 -41.989  27.596  0.00  0.00    +0.000 A 
ATOM     27  C   UNL     1     -17.620 -42.389  27.899  0.00  0.00    +0.000 A 
ATOM     28  C   UNL     1     -16.708 -42.706  26.961  0.00  0.00    +0.000 A 
ATOM     29  C   UNL     1     -17.128 -42.590  25.686  0.00  0.00    +0.000 A 
ATOM     30  C   UNL     1     -18.371 -42.190  25.372  0.00  0.00    +0.000 A 
BRANCH  28  31
ATOM     31  O   UNL     1     -15.458 -43.102  27.366  0.00  0.00    +0.000 OA
BRANCH  31  32
ATOM     32  C   UNL     1     -14.435 -43.352  26.393  0.00  0.00    +0.000 C 
ATOM     33  F   UNL     1     -13.223 -43.468  26.924  0.00  0.00    +0.000 F 
ATOM     34  F   UNL     1     -14.366 -42.420  25.451  0.00  0.00    +0.000 F 
ATOM     35  F   UNL     1     -14.668 -44.498  25.759  0.00  0.00    +0.000 F 
ENDBRANCH  31  32
ENDBRANCH  28  31
ENDBRANCH  24  25
ENDBRANCH  22  23
ENDBRANCH  19  22
TORSDOF 5
ENDMDL
MODEL 3
REMARK VINA RESULT:     -11.3      5.405      9.189
REMARK  Name = Fragment
REMARK  5 active torsions:
REMARK  status: ('A' for Active; 'I' for Inactive)
REMARK    1  A    between atoms: N_19  and  C_22
REMARK    2  A    between atoms: C_22  and  C_23
REMARK    3  A    between atoms: C_24  and  C_25
REMARK    4  A    between atoms: C_28  and  O_31
REMARK    5  A    between atoms: O_31  and  C_32
REMARK                            x       y       z     vdW  Elec       q    Type
REMARK                         _______ _______ _______ _____ _____    ______ ____
ROOT
ATOM      1  C   UNL     1     -21.658 -45.601  25.709  0.00  0.00    +0.000 A 
ATOM      2  C   UNL     1     -21.802 -45.335  27.018  0.00  0.00    +0.000 A 
ATOM      3  C   UNL     1     -21.193 -44.270  27.563  0.00  0.00    +0.000 A 
ATOM      4  C   UNL     1     -20.434 -43.477  26.793  0.00  0.00    +0.000 A 
ATOM      5  C   UNL     1     -20.289 -43.744  25.482  0.00  0.00    +0.000 A 
ATOM      6  C   UNL     1     -20.902 -44.805  24.935  0.00  0.00    +0.000 A 
ATOM      7  C   UNL     1     -19.706 -42.239  27.273  0.00  0.00    +0.000 C 
ATOM      8  C   UNL     1     -18.274 -42.438  26.820  0.00  0.00    +0.000 A 
ATOM      9  C   UNL     1     -18.128 -42.704  25.509  0.00  0.00    +0.000 A 
ATOM     10  C   UNL     1     -19.424 -42.758  24.724  0.00  0.00    +0.000 C 
ATOM     11  C   UNL     1     -20.254 -41.066  26.434  0.00  0.00    +0.000 C 
ATOM     12  C   UNL     1     -20.087 -41.378  24.910  0.00  0.00    +0.000 C 
ATOM     13  C   UNL     1     -17.198 -42.357  27.616  0.00  0.00    +0.000 A 
ATOM     14  C   UNL     1     -15.975 -42.548  27.095  0.00  0.00    +0.000 A 
ATOM     15  C   UNL     1     -21.508 -41.323  24.371  0.00  0.00    +0.000 C 
ATOM     16  C   UNL     1     -15.830 -42.814  25.786  0.00  0.00    +0.000 A 
ATOM     17  C   UNL     1     -16.907 -42.891  24.988  0.00  0.00    +0.000 A 
ATOM     18  C   UNL     1     -21.752 -40.865  26.599  0.00  0.00    +0.000 C 
ATOM     19  N   UNL     1     -22.381 -41.042  25.393  0.00  0.00    +0.000 N 
ATOM     20  O   UNL     1     -21.827 -41.505  23.221  0.00  0.00    +0.000 OA
ATOM     21  O   UNL     1     -22.315 -40.598  27.634  0.00  0.00    +0.000 OA
ENDROOT
BRANCH  19  22
ATOM     22  C   UNL     1     -23.822 -40.915  25.215  0.00  0.00    +0.000 C 
BRANCH  22  23
ATOM     23  C   UNL     1     -24.505 -42.128  25.798  0.00  0.00    +0.000 C 
ATOM     24  C   UNL     1     -24.487 -43.339  25.217  0.00  0.00    +0.000 C 
BRANCH  24  25
ATOM     25  C   UNL     1     -25.055 -44.477  25.665  0.00  0.00    +0.000 A 
ATOM     26  C   UNL     1     -25.487 -44.541  26.940  0.00  0.00    +0.000 A 
ATOM     27  C   UNL     1     -26.060 -45.650  27.433  0.00  0.00    +0.000 A 
ATOM     28  C   UNL     1     -26.243 -46.762  26.697  0.00  0.00    +0.000 A 
ATOM     29  C   UNL     1     -25.806 -46.691  25.424  0.00  0.00    +0.000 A 
ATOM     30  C   UNL     1     -25.232 -45.585  24.922  0.00  0.00    +0.000 A 
BRANCH  28  31
ATOM     31  O   UNL     1     -26.836 -47.850  27.287  0.00  0.00    +0.000 OA
BRANCH  31  32
ATOM     32  C   UNL     1     -26.025 -48.886  27.858  0.00  0.00    +0.000 C 
ATOM     33  F   UNL     1     -26.702 -49.703  28.657  0.00  0.00    +0.000 F 
ATOM     34  F   UNL     1     -24.991 -48.423  28.551  0.00  0.00    +0.000 F 
ATOM     35  F   UNL     1     -25.511 -49.653  26.900  0.00  0.00    +0.000 F 
ENDBRANCH  31  32
ENDBRANCH  28  31
ENDBRANCH  24  25
ENDBRANCH  22  23
ENDBRANCH  19  22
TORSDOF 5
ENDMDL
MODEL 4
REMARK VINA RESULT:     -11.0     24.710     26.951
REMARK  Name = Fragment
REMARK  5 active torsions:
REMARK  status: ('A' for Active; 'I' for Inactive)
REMARK    1  A    between atoms: N_19  and  C_22
REMARK    2  A    between atoms: C_22  and  C_23
REMARK    3  A    between atoms: C_24  and  C_25
REMARK    4  A    between atoms: C_28  and  O_31
REMARK    5  A    between atoms: O_31  and  C_32
REMARK                            x       y       z     vdW  Elec       q    Type
REMARK                         _______ _______ _______ _____ _____    ______ ____
ROOT
ATOM      1  C   UNL     1      -0.325 -58.449  12.177  0.00  0.00    +0.000 A 
ATOM      2  C   UNL     1      -0.231 -59.238  11.094  0.00  0.00    +0.000 A 
ATOM      3  C   UNL     1      -1.281 -59.384  10.270  0.00  0.00    +0.000 A 
ATOM      4  C   UNL     1      -2.426 -58.740  10.540  0.00  0.00    +0.000 A 
ATOM      5  C   UNL     1      -2.520 -57.949  11.624  0.00  0.00    +0.000 A 
ATOM      6  C   UNL     1      -1.469 -57.799  12.445  0.00  0.00    +0.000 A 
ATOM      7  C   UNL     1      -3.677 -58.802   9.689  0.00  0.00    +0.000 C 
ATOM      8  C   UNL     1      -4.780 -59.180  10.658  0.00  0.00    +0.000 A 
ATOM      9  C   UNL     1      -4.874 -58.390  11.743  0.00  0.00    +0.000 A 
ATOM     10  C   UNL     1      -3.860 -57.264  11.799  0.00  0.00    +0.000 C 
ATOM     11  C   UNL     1      -3.976 -57.351   9.258  0.00  0.00    +0.000 C 
ATOM     12  C   UNL     1      -4.083 -56.431  10.520  0.00  0.00    +0.000 C 
ATOM     13  C   UNL     1      -5.628 -60.206  10.494  0.00  0.00    +0.000 A 
ATOM     14  C   UNL     1      -6.571 -60.438  11.422  0.00  0.00    +0.000 A 
ATOM     15  C   UNL     1      -3.005 -55.383  10.297  0.00  0.00    +0.000 C 
ATOM     16  C   UNL     1      -6.664 -59.649  12.505  0.00  0.00    +0.000 A 
ATOM     17  C   UNL     1      -5.817 -58.620  12.668  0.00  0.00    +0.000 A 
ATOM     18  C   UNL     1      -2.850 -56.726   8.451  0.00  0.00    +0.000 C 
ATOM     19  N   UNL     1      -2.351 -55.634   9.115  0.00  0.00    +0.000 N 
ATOM     20  O   UNL     1      -2.751 -54.471  11.045  0.00  0.00    +0.000 OA
ATOM     21  O   UNL     1      -2.441 -57.128   7.387  0.00  0.00    +0.000 OA
ENDROOT
BRANCH  19  22
ATOM     22  C   UNL     1      -1.263 -54.813   8.601  0.00  0.00    +0.000 C 
BRANCH  22  23
ATOM     23  C   UNL     1       0.040 -55.277   9.205  0.00  0.00    +0.000 C 
ATOM     24  C   UNL     1       0.472 -54.896  10.419  0.00  0.00    +0.000 C 
BRANCH  24  25
ATOM     25  C   UNL     1       1.609 -55.265  11.042  0.00  0.00    +0.000 A 
ATOM     26  C   UNL     1       2.046 -54.547  12.095  0.00  0.00    +0.000 A 
ATOM     27  C   UNL     1       3.171 -54.872  12.750  0.00  0.00    +0.000 A 
ATOM     28  C   UNL     1       3.933 -55.928  12.406  0.00  0.00    +0.000 A 
ATOM     29  C   UNL     1       3.492 -56.638  11.349  0.00  0.00    +0.000 A 
ATOM     30  C   UNL     1       2.366 -56.320  10.689  0.00  0.00    +0.000 A 
BRANCH  28  31
ATOM     31  O   UNL     1       5.070 -56.182  13.131  0.00  0.00    +0.000 OA
BRANCH  31  32
ATOM     32  C   UNL     1       6.196 -55.299  13.033  0.00  0.00    +0.000 C 
ATOM     33  F   UNL     1       6.191 -54.563  11.928  0.00  0.00    +0.000 F 
ATOM     34  F   UNL     1       7.363 -55.929  13.083  0.00  0.00    +0.000 F 
ATOM     35  F   UNL     1       6.199 -54.439  14.048  0.00  0.00    +0.000 F 
ENDBRANCH  31  32
ENDBRANCH  28  31
ENDBRANCH  24  25
ENDBRANCH  22  23
ENDBRANCH  19  22
TORSDOF 5
ENDMDL
MODEL 5
REMARK VINA RESULT:     -10.6      7.886     11.381
REMARK  Name = Fragment
REMARK  5 active torsions:
REMARK  status: ('A' for Active; 'I' for Inactive)
REMARK    1  A    between atoms: N_19  and  C_22
REMARK    2  A    between atoms: C_22  and  C_23
REMARK    3  A    between atoms: C_24  and  C_25
REMARK    4  A    between atoms: C_28  and  O_31
REMARK    5  A    between atoms: O_31  and  C_32
REMARK                            x       y       z     vdW  Elec       q    Type
REMARK                         _______ _______ _______ _____ _____    ______ ____
ROOT
ATOM      1  C   UNL     1     -20.870 -38.648  21.629  0.00  0.00    +0.000 A 
ATOM      2  C   UNL     1     -19.971 -39.398  20.971  0.00  0.00    +0.000 A 
ATOM      3  C   UNL     1     -19.668 -40.631  21.408  0.00  0.00    +0.000 A 
ATOM      4  C   UNL     1     -20.266 -41.106  22.510  0.00  0.00    +0.000 A 
ATOM      5  C   UNL     1     -21.167 -40.355  23.169  0.00  0.00    +0.000 A 
ATOM      6  C   UNL     1     -21.473 -39.124  22.730  0.00  0.00    +0.000 A 
ATOM      7  C   UNL     1     -20.031 -42.480  23.100  0.00  0.00    +0.000 C 
ATOM      8  C   UNL     1     -19.697 -42.218  24.555  0.00  0.00    +0.000 A 
ATOM      9  C   UNL     1     -20.597 -41.468  25.216  0.00  0.00    +0.000 A 
ATOM     10  C   UNL     1     -21.782 -41.019  24.384  0.00  0.00    +0.000 C 
ATOM     11  C   UNL     1     -21.403 -43.186  23.105  0.00  0.00    +0.000 C 
ATOM     12  C   UNL     1     -22.450 -42.311  23.871  0.00  0.00    +0.000 C 
ATOM     13  C   UNL     1     -18.609 -42.681  25.188  0.00  0.00    +0.000 A 
ATOM     14  C   UNL     1     -18.424 -42.385  26.486  0.00  0.00    +0.000 A 
ATOM     15  C   UNL     1     -23.532 -42.051  22.834  0.00  0.00    +0.000 C 
ATOM     16  C   UNL     1     -19.323 -41.635  27.144  0.00  0.00    +0.000 A 
ATOM     17  C   UNL     1     -20.414 -41.175  26.511  0.00  0.00    +0.000 A 
ATOM     18  C   UNL     1     -22.002 -43.332  21.716  0.00  0.00    +0.000 C 
ATOM     19  N   UNL     1     -23.190 -42.650  21.647  0.00  0.00    +0.000 N 
ATOM     20  O   UNL     1     -24.537 -41.408  23.018  0.00  0.00    +0.000 OA
ATOM     21  O   UNL     1     -21.509 -43.946  20.799  0.00  0.00    +0.000 OA
ENDROOT
BRANCH  19  22
ATOM     22  C   UNL     1     -24.015 -42.597  20.446  0.00  0.00    +0.000 C 
BRANCH  22  23
ATOM     23  C   UNL     1     -23.936 -41.214  19.848  0.00  0.00    +0.000 C 
ATOM     24  C   UNL     1     -23.325 -40.945  18.682  0.00  0.00    +0.000 C 
BRANCH  24  25
ATOM     25  C   UNL     1     -23.213 -39.750  18.067  0.00  0.00    +0.000 A 
ATOM     26  C   UNL     1     -23.945 -39.506  16.962  0.00  0.00    +0.000 A 
ATOM     27  C   UNL     1     -23.870 -38.334  16.314  0.00  0.00    +0.000 A 
ATOM     28  C   UNL     1     -23.070 -37.329  16.718  0.00  0.00    +0.000 A 
ATOM     29  C   UNL     1     -22.339 -37.582  17.821  0.00  0.00    +0.000 A 
ATOM     30  C   UNL     1     -22.408 -38.753  18.477  0.00  0.00    +0.000 A 
BRANCH  28  31
ATOM     31  O   UNL     1     -23.056 -36.167  15.990  0.00  0.00    +0.000 OA
BRANCH  31  32
ATOM     32  C   UNL     1     -24.042 -35.155  16.236  0.00  0.00    +0.000 C 
ATOM     33  F   UNL     1     -25.163 -35.335  15.547  0.00  0.00    +0.000 F 
ATOM     34  F   UNL     1     -23.611 -33.927  15.975  0.00  0.00    +0.000 F 
ATOM     35  F   UNL     1     -24.396 -35.154  17.519  0.00  0.00    +0.000 F 
ENDBRANCH  31  32
ENDBRANCH  28  31
ENDBRANCH  24  25
ENDBRANCH  22  23
ENDBRANCH  19  22
TORSDOF 5
ENDMDL
MODEL 6
REMARK VINA RESULT:     -10.6      6.082      9.726
REMARK  Name = Fragment
REMARK  5 active torsions:
REMARK  status: ('A' for Active; 'I' for Inactive)
REMARK    1  A    between atoms: N_19  and  C_22
REMARK    2  A    between atoms: C_22  and  C_23
REMARK    3  A    between atoms: C_24  and  C_25
REMARK    4  A    between atoms: C_28  and  O_31
REMARK    5  A    between atoms: O_31  and  C_32
REMARK                            x       y       z     vdW  Elec       q    Type
REMARK                         _______ _______ _______ _____ _____    ______ ____
ROOT
ATOM      1  C   UNL     1     -22.344 -40.137  26.659  0.00  0.00    +0.000 A 
ATOM      2  C   UNL     1     -22.763 -40.295  25.393  0.00  0.00    +0.000 A 
ATOM      3  C   UNL     1     -22.226 -41.250  24.616  0.00  0.00    +0.000 A 
ATOM      4  C   UNL     1     -21.264 -42.041  25.114  0.00  0.00    +0.000 A 
ATOM      5  C   UNL     1     -20.845 -41.883  26.382  0.00  0.00    +0.000 A 
ATOM      6  C   UNL     1     -21.385 -40.932  27.160  0.00  0.00    +0.000 A 
ATOM      7  C   UNL     1     -20.587 -43.163  24.356  0.00  0.00    +0.000 C 
ATOM      8  C   UNL     1     -19.104 -42.885  24.506  0.00  0.00    +0.000 A 
ATOM      9  C   UNL     1     -18.685 -42.727  25.774  0.00  0.00    +0.000 A 
ATOM     10  C   UNL     1     -19.771 -42.856  26.824  0.00  0.00    +0.000 C 
ATOM     11  C   UNL     1     -20.856 -44.450  25.164  0.00  0.00    +0.000 C 
ATOM     12  C   UNL     1     -20.370 -44.265  26.640  0.00  0.00    +0.000 C 
ATOM     13  C   UNL     1     -18.233 -42.801  23.490  0.00  0.00    +0.000 A 
ATOM     14  C   UNL     1     -16.938 -42.554  23.750  0.00  0.00    +0.000 A 
ATOM     15  C   UNL     1     -21.626 -44.490  27.465  0.00  0.00    +0.000 C 
ATOM     16  C   UNL     1     -16.519 -42.396  25.016  0.00  0.00    +0.000 A 
ATOM     17  C   UNL     1     -17.392 -42.484  26.034  0.00  0.00    +0.000 A 
ATOM     18  C   UNL     1     -22.336 -44.763  25.308  0.00  0.00    +0.000 C 
ATOM     19  N   UNL     1     -22.688 -44.751  26.634  0.00  0.00    +0.000 N 
ATOM     20  O   UNL     1     -21.690 -44.441  28.670  0.00  0.00    +0.000 OA
ATOM     21  O   UNL     1     -23.100 -44.983  24.398  0.00  0.00    +0.000 OA
ENDROOT
BRANCH  19  22
ATOM     22  C   UNL     1     -24.040 -45.017  27.106  0.00  0.00    +0.000 C 
BRANCH  22  23
ATOM     23  C   UNL     1     -24.516 -43.851  27.939  0.00  0.00    +0.000 C 
ATOM     24  C   UNL     1     -24.800 -42.642  27.426  0.00  0.00    +0.000 C 
BRANCH  24  25
ATOM     25  C   UNL     1     -25.239 -41.550  28.084  0.00  0.00    +0.000 A 
ATOM     26  C   UNL     1     -24.944 -41.405  29.391  0.00  0.00    +0.000 A 
ATOM     27  C   UNL     1     -25.356 -40.336  30.090  0.00  0.00    +0.000 A 
ATOM     28  C   UNL     1     -26.083 -39.345  29.541  0.00  0.00    +0.000 A 
ATOM     29  C   UNL     1     -26.377 -39.498  28.236  0.00  0.00    +0.000 A 
ATOM     30  C   UNL     1     -25.968 -40.565  27.528  0.00  0.00    +0.000 A 
BRANCH  28  31
ATOM     31  O   UNL     1     -26.463 -38.292  30.335  0.00  0.00    +0.000 OA
BRANCH  31  32
ATOM     32  C   UNL     1     -25.549 -37.215  30.584  0.00  0.00    +0.000 C 
ATOM     33  F   UNL     1     -24.807 -36.901  29.528  0.00  0.00    +0.000 F 
ATOM     34  F   UNL     1     -24.721 -37.450  31.594  0.00  0.00    +0.000 F 
ATOM     35  F   UNL     1     -26.215 -36.108  30.906  0.00  0.00    +0.000 F 
ENDBRANCH  31  32
ENDBRANCH  28  31
ENDBRANCH  24  25
ENDBRANCH  22  23
ENDBRANCH  19  22
TORSDOF 5
ENDMDL
MODEL 7
REMARK VINA RESULT:     -10.5      5.181      6.993
REMARK  Name = Fragment
REMARK  5 active torsions:
REMARK  status: ('A' for Active; 'I' for Inactive)
REMARK    1  A    between atoms: N_19  and  C_22
REMARK    2  A    between atoms: C_22  and  C_23
REMARK    3  A    between atoms: C_24  and  C_25
REMARK    4  A    between atoms: C_28  and  O_31
REMARK    5  A    between atoms: O_31  and  C_32
REMARK                            x       y       z     vdW  Elec       q    Type
REMARK                         _______ _______ _______ _____ _____    ______ ____
ROOT
ATOM      1  C   UNL     1     -26.414 -40.543  19.971  0.00  0.00    +0.000 A 
ATOM      2  C   UNL     1     -25.909 -41.278  18.965  0.00  0.00    +0.000 A 
ATOM      3  C   UNL     1     -24.789 -40.887  18.337  0.00  0.00    +0.000 A 
ATOM      4  C   UNL     1     -24.180 -39.754  18.717  0.00  0.00    +0.000 A 
ATOM      5  C   UNL     1     -24.685 -39.018  19.725  0.00  0.00    +0.000 A 
ATOM      6  C   UNL     1     -25.802 -39.412  20.356  0.00  0.00    +0.000 A 
ATOM      7  C   UNL     1     -22.906 -39.208  18.108  0.00  0.00    +0.000 C 
ATOM      8  C   UNL     1     -23.241 -37.776  17.743  0.00  0.00    +0.000 A 
ATOM      9  C   UNL     1     -23.746 -37.039  18.750  0.00  0.00    +0.000 A 
ATOM     10  C   UNL     1     -23.888 -37.776  20.067  0.00  0.00    +0.000 C 
ATOM     11  C   UNL     1     -21.883 -39.119  19.260  0.00  0.00    +0.000 C 
ATOM     12  C   UNL     1     -22.472 -38.265  20.432  0.00  0.00    +0.000 C 
ATOM     13  C   UNL     1     -23.061 -37.230  16.531  0.00  0.00    +0.000 A 
ATOM     14  C   UNL     1     -23.392 -35.943  16.330  0.00  0.00    +0.000 A 
ATOM     15  C   UNL     1     -22.457 -39.218  21.617  0.00  0.00    +0.000 C 
ATOM     16  C   UNL     1     -23.896 -35.209  17.336  0.00  0.00    +0.000 A 
ATOM     17  C   UNL     1     -24.073 -35.754  18.550  0.00  0.00    +0.000 A 
ATOM     18  C   UNL     1     -21.595 -40.466  19.904  0.00  0.00    +0.000 C 
ATOM     19  N   UNL     1     -21.962 -40.437  21.226  0.00  0.00    +0.000 N 
ATOM     20  O   UNL     1     -22.831 -38.951  22.733  0.00  0.00    +0.000 OA
ATOM     21  O   UNL     1     -21.122 -41.426  19.344  0.00  0.00    +0.000 OA
ENDROOT
BRANCH  19  22
ATOM     22  C   UNL     1     -21.810 -41.575  22.124  0.00  0.00    +0.000 C 
BRANCH  22  23
ATOM     23  C   UNL     1     -20.489 -41.469  22.845  0.00  0.00    +0.000 C 
ATOM     24  C   UNL     1     -19.646 -42.503  23.003  0.00  0.00    +0.000 C 
BRANCH  24  25
ATOM     25  C   UNL     1     -18.446 -42.502  23.619  0.00  0.00    +0.000 A 
ATOM     26  C   UNL     1     -18.397 -42.504  24.965  0.00  0.00    +0.000 A 
ATOM     27  C   UNL     1     -17.229 -42.504  25.626  0.00  0.00    +0.000 A 
ATOM     28  C   UNL     1     -16.038 -42.504  24.997  0.00  0.00    +0.000 A 
ATOM     29  C   UNL     1     -16.096 -42.498  23.651  0.00  0.00    +0.000 A 
ATOM     30  C   UNL     1     -17.261 -42.499  22.982  0.00  0.00    +0.000 A 
BRANCH  28  31
ATOM     31  O   UNL     1     -14.895 -42.500  25.756  0.00  0.00    +0.000 OA
BRANCH  31  32
ATOM     32  C   UNL     1     -14.349 -43.736  26.238  0.00  0.00    +0.000 C 
ATOM     33  F   UNL     1     -14.946 -44.180  27.338  0.00  0.00    +0.000 F 
ATOM     34  F   UNL     1     -13.048 -43.673  26.492  0.00  0.00    +0.000 F 
ATOM     35  F   UNL     1     -14.499 -44.695  25.327  0.00  0.00    +0.000 F 
ENDBRANCH  31  32
ENDBRANCH  28  31
ENDBRANCH  24  25
ENDBRANCH  22  23
ENDBRANCH  19  22
TORSDOF 5
ENDMDL
MODEL 8
REMARK VINA RESULT:     -10.4     25.400     28.139
REMARK  Name = Fragment
REMARK  5 active torsions:
REMARK  status: ('A' for Active; 'I' for Inactive)
REMARK    1  A    between atoms: N_19  and  C_22
REMARK    2  A    between atoms: C_22  and  C_23
REMARK    3  A    between atoms: C_24  and  C_25
REMARK    4  A    between atoms: C_28  and  O_31
REMARK    5  A    between atoms: O_31  and  C_32
REMARK                            x       y       z     vdW  Elec       q    Type
REMARK                         _______ _______ _______ _____ _____    ______ ____
ROOT
ATOM      1  C   UNL     1      -3.381 -58.765   7.419  0.00  0.00    +0.000 A 
ATOM      2  C   UNL     1      -4.292 -57.786   7.540  0.00  0.00    +0.000 A 
ATOM      3  C   UNL     1      -4.750 -57.432   8.751  0.00  0.00    +0.000 A 
ATOM      4  C   UNL     1      -4.295 -58.069   9.840  0.00  0.00    +0.000 A 
ATOM      5  C   UNL     1      -3.382 -59.050   9.720  0.00  0.00    +0.000 A 
ATOM      6  C   UNL     1      -2.920 -59.400   8.510  0.00  0.00    +0.000 A 
ATOM      7  C   UNL     1      -4.713 -57.761  11.263  0.00  0.00    +0.000 C 
ATOM      8  C   UNL     1      -5.138 -59.098  11.834  0.00  0.00    +0.000 A 
ATOM      9  C   UNL     1      -4.226 -60.080  11.714  0.00  0.00    +0.000 A 
ATOM     10  C   UNL     1      -2.937 -59.670  11.029  0.00  0.00    +0.000 C 
ATOM     11  C   UNL     1      -3.422 -57.374  12.015  0.00  0.00    +0.000 C 
ATOM     12  C   UNL     1      -2.360 -58.515  11.873  0.00  0.00    +0.000 C 
ATOM     13  C   UNL     1      -6.315 -59.339  12.430  0.00  0.00    +0.000 A 
ATOM     14  C   UNL     1      -6.576 -60.569  12.903  0.00  0.00    +0.000 A 
ATOM     15  C   UNL     1      -1.177 -57.828  11.211  0.00  0.00    +0.000 C 
ATOM     16  C   UNL     1      -5.665 -61.549  12.783  0.00  0.00    +0.000 A 
ATOM     17  C   UNL     1      -4.485 -61.307  12.189  0.00  0.00    +0.000 A 
ATOM     18  C   UNL     1      -2.728 -56.160  11.421  0.00  0.00    +0.000 C 
ATOM     19  N   UNL     1      -1.476 -56.508  10.981  0.00  0.00    +0.000 N 
ATOM     20  O   UNL     1      -0.132 -58.358  10.923  0.00  0.00    +0.000 OA
ATOM     21  O   UNL     1      -3.201 -55.051  11.336  0.00  0.00    +0.000 OA
ENDROOT
BRANCH  19  22
ATOM     22  C   UNL     1      -0.554 -55.564  10.361  0.00  0.00    +0.000 C 
BRANCH  22  23
ATOM     23  C   UNL     1      -0.940 -55.366   8.915  0.00  0.00    +0.000 C 
ATOM     24  C   UNL     1      -0.474 -56.130   7.913  0.00  0.00    +0.000 C 
BRANCH  24  25
ATOM     25  C   UNL     1      -0.767 -56.037   6.600  0.00  0.00    +0.000 A 
ATOM     26  C   UNL     1      -0.925 -54.820   6.045  0.00  0.00    +0.000 A 
ATOM     27  C   UNL     1      -1.217 -54.674   4.743  0.00  0.00    +0.000 A 
ATOM     28  C   UNL     1      -1.369 -55.721   3.910  0.00  0.00    +0.000 A 
ATOM     29  C   UNL     1      -1.213 -56.935   4.474  0.00  0.00    +0.000 A 
ATOM     30  C   UNL     1      -0.921 -57.090   5.776  0.00  0.00    +0.000 A 
BRANCH  28  31
ATOM     31  O   UNL     1      -1.671 -55.475   2.595  0.00  0.00    +0.000 OA
BRANCH  31  32
ATOM     32  C   UNL     1      -2.992 -55.053   2.228  0.00  0.00    +0.000 C 
ATOM     33  F   UNL     1      -3.201 -53.756   2.422  0.00  0.00    +0.000 F 
ATOM     34  F   UNL     1      -3.950 -55.709   2.871  0.00  0.00    +0.000 F 
ATOM     35  F   UNL     1      -3.204 -55.269   0.933  0.00  0.00    +0.000 F 
ENDBRANCH  31  32
ENDBRANCH  28  31
ENDBRANCH  24  25
ENDBRANCH  22  23
ENDBRANCH  19  22
TORSDOF 5
ENDMDL
MODEL 9
REMARK VINA RESULT:     -10.1     25.878     29.001
REMARK  Name = Fragment
REMARK  5 active torsions:
REMARK  status: ('A' for Active; 'I' for Inactive)
REMARK    1  A    between atoms: N_19  and  C_22
REMARK    2  A    between atoms: C_22  and  C_23
REMARK    3  A    between atoms: C_24  and  C_25
REMARK    4  A    between atoms: C_28  and  O_31
REMARK    5  A    between atoms: O_31  and  C_32
REMARK                            x       y       z     vdW  Elec       q    Type
REMARK                         _______ _______ _______ _____ _____    ______ ____
ROOT
ATOM      1  C   UNL     1       6.647 -58.989  17.055  0.00  0.00    +0.000 A 
ATOM      2  C   UNL     1       5.601 -59.757  17.402  0.00  0.00    +0.000 A 
ATOM      3  C   UNL     1       4.371 -59.225  17.493  0.00  0.00    +0.000 A 
ATOM      4  C   UNL     1       4.197 -57.920  17.240  0.00  0.00    +0.000 A 
ATOM      5  C   UNL     1       5.245 -57.150  16.893  0.00  0.00    +0.000 A 
ATOM      6  C   UNL     1       6.473 -57.683  16.796  0.00  0.00    +0.000 A 
ATOM      7  C   UNL     1       2.867 -57.197  17.290  0.00  0.00    +0.000 C 
ATOM      8  C   UNL     1       3.112 -56.008  18.198  0.00  0.00    +0.000 A 
ATOM      9  C   UNL     1       4.160 -55.239  17.851  0.00  0.00    +0.000 A 
ATOM     10  C   UNL     1       4.905 -55.700  16.614  0.00  0.00    +0.000 C 
ATOM     11  C   UNL     1       2.645 -56.610  15.881  0.00  0.00    +0.000 C 
ATOM     12  C   UNL     1       3.865 -55.717  15.476  0.00  0.00    +0.000 C 
ATOM     13  C   UNL     1       2.370 -55.696  19.271  0.00  0.00    +0.000 A 
ATOM     14  C   UNL     1       2.684 -54.610  19.997  0.00  0.00    +0.000 A 
ATOM     15  C   UNL     1       4.384 -56.368  14.204  0.00  0.00    +0.000 C 
ATOM     16  C   UNL     1       3.730 -53.842  19.650  0.00  0.00    +0.000 A 
ATOM     17  C   UNL     1       4.471 -54.153  18.574  0.00  0.00    +0.000 A 
ATOM     18  C   UNL     1       2.599 -57.672  14.794  0.00  0.00    +0.000 C 
ATOM     19  N   UNL     1       3.621 -57.469  13.902  0.00  0.00    +0.000 N 
ATOM     20  O   UNL     1       5.328 -55.984  13.558  0.00  0.00    +0.000 OA
ATOM     21  O   UNL     1       1.794 -58.570  14.722  0.00  0.00    +0.000 OA
ENDROOT
BRANCH  19  22
ATOM     22  C   UNL     1       3.850 -58.318  12.740  0.00  0.00    +0.000 C 
BRANCH  22  23
ATOM     23  C   UNL     1       3.364 -57.608  11.500  0.00  0.00    +0.000 C 
ATOM     24  C   UNL     1       2.137 -57.072  11.386  0.00  0.00    +0.000 C 
BRANCH  24  25
ATOM     25  C   UNL     1       1.620 -56.414  10.329  0.00  0.00    +0.000 A 
ATOM     26  C   UNL     1       1.985 -56.776   9.084  0.00  0.00    +0.000 A 
ATOM     27  C   UNL     1       1.498 -56.154   8.000  0.00  0.00    +0.000 A 
ATOM     28  C   UNL     1       0.620 -55.135   8.078  0.00  0.00    +0.000 A 
ATOM     29  C   UNL     1       0.264 -54.776   9.327  0.00  0.00    +0.000 A 
ATOM     30  C   UNL     1       0.746 -55.394  10.418  0.00  0.00    +0.000 A 
BRANCH  28  31
ATOM     31  O   UNL     1       0.180 -54.556   6.915  0.00  0.00    +0.000 OA
BRANCH  31  32
ATOM     32  C   UNL     1      -0.753 -55.251   6.076  0.00  0.00    +0.000 C 
ATOM     33  F   UNL     1      -1.619 -55.994   6.756  0.00  0.00    +0.000 F 
ATOM     34  F   UNL     1      -0.170 -56.042   5.184  0.00  0.00    +0.000 F 
ATOM     35  F   UNL     1      -1.482 -54.385   5.377  0.00  0.00    +0.000 F 
ENDBRANCH  31  32
ENDBRANCH  28  31
ENDBRANCH  24  25
ENDBRANCH  22  23
ENDBRANCH  19  22
TORSDOF 5
ENDMDL
MODEL 10
REMARK VINA RESULT:     -10.0     25.036     27.011
REMARK  Name = Fragment
REMARK  5 active torsions:
REMARK  status: ('A' for Active; 'I' for Inactive)
REMARK    1  A    between atoms: N_19  and  C_22
REMARK    2  A    between atoms: C_22  and  C_23
REMARK    3  A    between atoms: C_24  and  C_25
REMARK    4  A    between atoms: C_28  and  O_31
REMARK    5  A    between atoms: O_31  and  C_32
REMARK                            x       y       z     vdW  Elec       q    Type
REMARK                         _______ _______ _______ _____ _____    ______ ____
ROOT
ATOM      1  C   UNL     1      -2.269 -60.329  11.678  0.00  0.00    +0.000 A 
ATOM      2  C   UNL     1      -2.651 -59.536  12.693  0.00  0.00    +0.000 A 
ATOM      3  C   UNL     1      -2.801 -58.216  12.500  0.00  0.00    +0.000 A 
ATOM      4  C   UNL     1      -2.562 -57.694  11.288  0.00  0.00    +0.000 A 
ATOM      5  C   UNL     1      -2.179 -58.489  10.272  0.00  0.00    +0.000 A 
ATOM      6  C   UNL     1      -2.034 -59.809  10.463  0.00  0.00    +0.000 A 
ATOM      7  C   UNL     1      -2.708 -56.230  10.930  0.00  0.00    +0.000 C 
ATOM      8  C   UNL     1      -1.382 -55.858  10.296  0.00  0.00    +0.000 A 
ATOM      9  C   UNL     1      -0.999 -56.652   9.280  0.00  0.00    +0.000 A 
ATOM     10  C   UNL     1      -1.963 -57.776   8.953  0.00  0.00    +0.000 C 
ATOM     11  C   UNL     1      -3.749 -56.169   9.793  0.00  0.00    +0.000 C 
ATOM     12  C   UNL     1      -3.304 -57.094   8.612  0.00  0.00    +0.000 C 
ATOM     13  C   UNL     1      -0.615 -54.825  10.673  0.00  0.00    +0.000 A 
ATOM     14  C   UNL     1       0.541 -54.592  10.029  0.00  0.00    +0.000 A 
ATOM     15  C   UNL     1      -4.454 -58.080   8.472  0.00  0.00    +0.000 C 
ATOM     16  C   UNL     1       0.923 -55.385   9.014  0.00  0.00    +0.000 A 
ATOM     17  C   UNL     1       0.153 -56.417   8.635  0.00  0.00    +0.000 A 
ATOM     18  C   UNL     1      -5.105 -56.725  10.196  0.00  0.00    +0.000 C 
ATOM     19  N   UNL     1      -5.416 -57.807   9.412  0.00  0.00    +0.000 N 
ATOM     20  O   UNL     1      -4.513 -58.974   7.663  0.00  0.00    +0.000 OA
ATOM     21  O   UNL     1      -5.807 -56.293  11.079  0.00  0.00    +0.000 OA
ENDROOT
BRANCH  19  22
ATOM     22  C   UNL     1      -6.654 -58.563   9.547  0.00  0.00    +0.000 C 
BRANCH  22  23
ATOM     23  C   UNL     1      -6.557 -59.466  10.753  0.00  0.00    +0.000 C 
ATOM     24  C   UNL     1      -5.861 -60.615  10.764  0.00  0.00    +0.000 C 
BRANCH  24  25
ATOM     25  C   UNL     1      -5.709 -61.477  11.790  0.00  0.00    +0.000 A 
ATOM     26  C   UNL     1      -6.214 -61.160  12.998  0.00  0.00    +0.000 A 
ATOM     27  C   UNL     1      -6.090 -61.983  14.050  0.00  0.00    +0.000 A 
ATOM     28  C   UNL     1      -5.460 -63.171  13.973  0.00  0.00    +0.000 A 
ATOM     29  C   UNL     1      -4.954 -63.479  12.763  0.00  0.00    +0.000 A 
ATOM     30  C   UNL     1      -5.075 -62.661  11.705  0.00  0.00    +0.000 A 
BRANCH  28  31
ATOM     31  O   UNL     1      -5.378 -63.945  15.103  0.00  0.00    +0.000 OA
BRANCH  31  32
ATOM     32  C   UNL     1      -6.518 -64.697  15.542  0.00  0.00    +0.000 C 
ATOM     33  F   UNL     1      -6.197 -65.850  16.117  0.00  0.00    +0.000 F 
ATOM     34  F   UNL     1      -7.376 -64.968  14.566  0.00  0.00    +0.000 F 
ATOM     35  F   UNL     1      -7.203 -64.011  16.453  0.00  0.00    +0.000 F 
ENDBRANCH  31  32
ENDBRANCH  28  31
ENDBRANCH  24  25
ENDBRANCH  22  23
ENDBRANCH  19  22
TORSDOF 5
ENDMDL
