MODEL 1
REMARK VINA RESULT:     -12.1      0.000      0.000
REMARK  Name = Fragment
REMARK  4 active torsions:
REMARK  status: ('A' for Active; 'I' for Inactive)
REMARK    1  A    between atoms: N_19  and  C_22
REMARK    2  A    between atoms: C_22  and  C_23
REMARK    3  A    between atoms: C_24  and  C_25
REMARK    4  A    between atoms: C_28  and  C_31
REMARK                            x       y       z     vdW  Elec       q    Type
REMARK                         _______ _______ _______ _____ _____    ______ ____
ROOT
ATOM      1  C   UNL     1     -21.441 -45.448  25.891  0.00  0.00    +0.000 A 
ATOM      2  C   UNL     1     -21.786 -45.326  24.598  0.00  0.00    +0.000 A 
ATOM      3  C   UNL     1     -21.833 -44.115  24.021  0.00  0.00    +0.000 A 
ATOM      4  C   UNL     1     -21.535 -43.027  24.747  0.00  0.00    +0.000 A 
ATOM      5  C   UNL     1     -21.190 -43.149  26.041  0.00  0.00    +0.000 A 
ATOM      6  C   UNL     1     -21.139 -44.360  26.617  0.00  0.00    +0.000 A 
ATOM      7  C   UNL     1     -21.532 -41.606  24.219  0.00  0.00    +0.000 C 
ATOM      8  C   UNL     1     -22.407 -40.837  25.187  0.00  0.00    +0.000 A 
ATOM      9  C   UNL     1     -22.061 -40.959  26.481  0.00  0.00    +0.000 A 
ATOM     10  C   UNL     1     -20.858 -41.844  26.737  0.00  0.00    +0.000 C 
ATOM     11  C   UNL     1     -20.100 -41.075  24.433  0.00  0.00    +0.000 C 
ATOM     12  C   UNL     1     -19.697 -41.218  25.938  0.00  0.00    +0.000 C 
ATOM     13  C   UNL     1     -23.452 -40.072  24.836  0.00  0.00    +0.000 A 
ATOM     14  C   UNL     1     -24.151 -39.432  25.787  0.00  0.00    +0.000 A 
ATOM     15  C   UNL     1     -18.457 -42.099  25.898  0.00  0.00    +0.000 C 
ATOM     16  C   UNL     1     -23.806 -39.554  27.079  0.00  0.00    +0.000 A 
ATOM     17  C   UNL     1     -22.757 -40.317  27.431  0.00  0.00    +0.000 A 
ATOM     18  C   UNL     1     -19.046 -41.887  23.697  0.00  0.00    +0.000 C 
ATOM     19  N   UNL     1     -18.171 -42.440  24.599  0.00  0.00    +0.000 N 
ATOM     20  O   UNL     1     -17.822 -42.455  26.861  0.00  0.00    +0.000 OA
ATOM     21  O   UNL     1     -18.984 -42.039  22.501  0.00  0.00    +0.000 OA
ENDROOT
BRANCH  19  22
ATOM     22  C   UNL     1     -17.042 -43.275  24.211  0.00  0.00    +0.000 C 
BRANCH  22  23
ATOM     23  C   UNL     1     -15.967 -43.180  25.265  0.00  0.00    +0.000 C 
ATOM     24  C   UNL     1     -14.920 -44.020  25.333  0.00  0.00    +0.000 C 
BRANCH  24  25
ATOM     25  C   UNL     1     -13.908 -44.009  26.226  0.00  0.00    +0.000 A 
ATOM     26  C   UNL     1     -13.632 -45.132  26.919  0.00  0.00    +0.000 A 
ATOM     27  C   UNL     1     -12.639 -45.182  27.819  0.00  0.00    +0.000 A 
ATOM     28  C   UNL     1     -11.885 -44.102  28.089  0.00  0.00    +0.000 A 
ATOM     29  C   UNL     1     -12.133 -42.990  27.375  0.00  0.00    +0.000 A 
ATOM     30  C   UNL     1     -13.128 -42.940  26.474  0.00  0.00    +0.000 A 
BRANCH  28  31
ATOM     31  C   UNL     1     -10.728 -44.172  29.057  0.00  0.00    +0.000 C 
ATOM     32  F   UNL     1      -9.611 -43.836  28.429  0.00  0.00    +0.000 F 
ATOM     33  F   UNL     1     -10.549 -45.387  29.550  0.00  0.00    +0.000 F 
ATOM     34  F   UNL     1     -10.866 -43.341  30.079  0.00  0.00    +0.000 F 
ENDBRANCH  28  31
ENDBRANCH  24  25
ENDBRANCH  22  23
ENDBRANCH  19  22
TORSDOF 4
ENDMDL
MODEL 2
REMARK VINA RESULT:     -12.1      2.162      3.489
REMARK  Name = Fragment
REMARK  4 active torsions:
REMARK  status: ('A' for Active; 'I' for Inactive)
REMARK    1  A    between atoms: N_19  and  C_22
REMARK    2  A    between atoms: C_22  and  C_23
REMARK    3  A    between atoms: C_24  and  C_25
REMARK    4  A    between atoms: C_28  and  C_31
REMARK                            x       y       z     vdW  Elec       q    Type
REMARK                         _______ _______ _______ _____ _____    ______ ____
ROOT
ATOM      1  C   UNL     1     -19.788 -42.040  27.239  0.00  0.00    +0.000 A 
ATOM      2  C   UNL     1     -20.150 -43.320  27.050  0.00  0.00    +0.000 A 
ATOM      3  C   UNL     1     -21.273 -43.614  26.375  0.00  0.00    +0.000 A 
ATOM      4  C   UNL     1     -22.032 -42.618  25.894  0.00  0.00    +0.000 A 
ATOM      5  C   UNL     1     -21.670 -41.337  26.083  0.00  0.00    +0.000 A 
ATOM      6  C   UNL     1     -20.545 -41.044  26.754  0.00  0.00    +0.000 A 
ATOM      7  C   UNL     1     -23.311 -42.808  25.103  0.00  0.00    +0.000 C 
ATOM      8  C   UNL     1     -24.335 -41.956  25.823  0.00  0.00    +0.000 A 
ATOM      9  C   UNL     1     -23.973 -40.674  26.011  0.00  0.00    +0.000 A 
ATOM     10  C   UNL     1     -22.604 -40.313  25.469  0.00  0.00    +0.000 C 
ATOM     11  C   UNL     1     -23.076 -42.122  23.742  0.00  0.00    +0.000 C 
ATOM     12  C   UNL     1     -22.652 -40.631  23.961  0.00  0.00    +0.000 C 
ATOM     13  C   UNL     1     -25.529 -42.390  26.254  0.00  0.00    +0.000 A 
ATOM     14  C   UNL     1     -26.357 -41.536  26.877  0.00  0.00    +0.000 A 
ATOM     15  C   UNL     1     -21.291 -40.540  23.287  0.00  0.00    +0.000 C 
ATOM     16  C   UNL     1     -25.995 -40.257  27.065  0.00  0.00    +0.000 A 
ATOM     17  C   UNL     1     -24.801 -39.820  26.631  0.00  0.00    +0.000 A 
ATOM     18  C   UNL     1     -21.911 -42.718  22.966  0.00  0.00    +0.000 C 
ATOM     19  N   UNL     1     -20.946 -41.763  22.768  0.00  0.00    +0.000 N 
ATOM     20  O   UNL     1     -20.608 -39.546  23.226  0.00  0.00    +0.000 OA
ATOM     21  O   UNL     1     -21.833 -43.861  22.586  0.00  0.00    +0.000 OA
ENDROOT
BRANCH  19  22
ATOM     22  C   UNL     1     -19.702 -42.018  22.054  0.00  0.00    +0.000 C 
BRANCH  22  23
ATOM     23  C   UNL     1     -18.737 -42.726  22.973  0.00  0.00    +0.000 C 
ATOM     24  C   UNL     1     -17.680 -42.124  23.544  0.00  0.00    +0.000 C 
BRANCH  24  25
ATOM     25  C   UNL     1     -16.773 -42.666  24.384  0.00  0.00    +0.000 A 
ATOM     26  C   UNL     1     -15.754 -43.384  23.873  0.00  0.00    +0.000 A 
ATOM     27  C   UNL     1     -14.822 -43.946  24.657  0.00  0.00    +0.000 A 
ATOM     28  C   UNL     1     -14.877 -43.837  25.996  0.00  0.00    +0.000 A 
ATOM     29  C   UNL     1     -15.871 -43.093  26.509  0.00  0.00    +0.000 A 
ATOM     30  C   UNL     1     -16.804 -42.530  25.723  0.00  0.00    +0.000 A 
BRANCH  28  31
ATOM     31  C   UNL     1     -13.796 -44.418  26.878  0.00  0.00    +0.000 C 
ATOM     32  F   UNL     1     -14.274 -44.589  28.101  0.00  0.00    +0.000 F 
ATOM     33  F   UNL     1     -12.741 -43.627  26.978  0.00  0.00    +0.000 F 
ATOM     34  F   UNL     1     -13.373 -45.600  26.456  0.00  0.00    +0.000 F 
ENDBRANCH  28  31
ENDBRANCH  24  25
ENDBRANCH  22  23
ENDBRANCH  19  22
TORSDOF 4
ENDMDL
MODEL 3
REMARK VINA RESULT:     -11.7      3.840      5.884
REMARK  Name = Fragment
REMARK  4 active torsions:
REMARK  status: ('A' for Active; 'I' for Inactive)
REMARK    1  A    between atoms: N_19  and  C_22
REMARK    2  A    between atoms: C_22  and  C_23
REMARK    3  A    between atoms: C_24  and  C_25
REMARK    4  A    between atoms: C_28  and  C_31
REMARK                            x       y       z     vdW  Elec       q    Type
REMARK                         _______ _______ _______ _____ _____    ______ ____
ROOT
ATOM      1  C   UNL     1     -20.897 -45.021  27.514  0.00  0.00    +0.000 A 
ATOM      2  C   UNL     1     -21.101 -45.326  26.222  0.00  0.00    +0.000 A 
ATOM      3  C   UNL     1     -22.347 -45.366  25.723  0.00  0.00    +0.000 A 
ATOM      4  C   UNL     1     -23.387 -45.101  26.528  0.00  0.00    +0.000 A 
ATOM      5  C   UNL     1     -23.183 -44.795  27.821  0.00  0.00    +0.000 A 
ATOM      6  C   UNL     1     -21.938 -44.752  28.318  0.00  0.00    +0.000 A 
ATOM      7  C   UNL     1     -24.839 -45.094  26.093  0.00  0.00    +0.000 C 
ATOM      8  C   UNL     1     -25.538 -46.006  27.080  0.00  0.00    +0.000 A 
ATOM      9  C   UNL     1     -25.334 -45.700  28.374  0.00  0.00    +0.000 A 
ATOM     10  C   UNL     1     -24.442 -44.498  28.611  0.00  0.00    +0.000 C 
ATOM     11  C   UNL     1     -25.365 -43.674  26.387  0.00  0.00    +0.000 C 
ATOM     12  C   UNL     1     -25.127 -43.317  27.892  0.00  0.00    +0.000 C 
ATOM     13  C   UNL     1     -26.316 -47.046  26.746  0.00  0.00    +0.000 A 
ATOM     14  C   UNL     1     -26.888 -47.780  27.714  0.00  0.00    +0.000 A 
ATOM     15  C   UNL     1     -24.260 -42.069  27.834  0.00  0.00    +0.000 C 
ATOM     16  C   UNL     1     -26.684 -47.475  29.006  0.00  0.00    +0.000 A 
ATOM     17  C   UNL     1     -25.907 -46.431  29.341  0.00  0.00    +0.000 A 
ATOM     18  C   UNL     1     -24.610 -42.590  25.634  0.00  0.00    +0.000 C 
ATOM     19  N   UNL     1     -24.006 -41.739  26.526  0.00  0.00    +0.000 N 
ATOM     20  O   UNL     1     -23.846 -41.461  28.793  0.00  0.00    +0.000 OA
ATOM     21  O   UNL     1     -24.537 -42.489  24.433  0.00  0.00    +0.000 OA
ENDROOT
BRANCH  19  22
ATOM     22  C   UNL     1     -23.205 -40.591  26.121  0.00  0.00    +0.000 C 
BRANCH  22  23
ATOM     23  C   UNL     1     -21.798 -41.047  25.820  0.00  0.00    +0.000 C 
ATOM     24  C   UNL     1     -20.898 -41.349  26.771  0.00  0.00    +0.000 C 
BRANCH  24  25
ATOM     25  C   UNL     1     -19.628 -41.773  26.603  0.00  0.00    +0.000 A 
ATOM     26  C   UNL     1     -18.863 -42.000  27.689  0.00  0.00    +0.000 A 
ATOM     27  C   UNL     1     -17.594 -42.423  27.585  0.00  0.00    +0.000 A 
ATOM     28  C   UNL     1     -17.019 -42.617  26.386  0.00  0.00    +0.000 A 
ATOM     29  C   UNL     1     -17.788 -42.427  25.300  0.00  0.00    +0.000 A 
ATOM     30  C   UNL     1     -19.058 -42.003  25.405  0.00  0.00    +0.000 A 
BRANCH  28  31
ATOM     31  C   UNL     1     -15.610 -43.151  26.266  0.00  0.00    +0.000 C 
ATOM     32  F   UNL     1     -14.764 -42.136  26.180  0.00  0.00    +0.000 F 
ATOM     33  F   UNL     1     -15.438 -43.896  25.187  0.00  0.00    +0.000 F 
ATOM     34  F   UNL     1     -15.247 -43.874  27.314  0.00  0.00    +0.000 F 
ENDBRANCH  28  31
ENDBRANCH  24  25
ENDBRANCH  22  23
ENDBRANCH  19  22
TORSDOF 4
ENDMDL
MODEL 4
REMARK VINA RESULT:     -11.5      4.118      6.363
REMARK  Name = Fragment
REMARK  4 active torsions:
REMARK  status: ('A' for Active; 'I' for Inactive)
REMARK    1  A    between atoms: N_19  and  C_22
REMARK    2  A    between atoms: C_22  and  C_23
REMARK    3  A    between atoms: C_24  and  C_25
REMARK    4  A    between atoms: C_28  and  C_31
REMARK                            x       y       z     vdW  Elec       q    Type
REMARK                         _______ _______ _______ _____ _____    ______ ____
ROOT
ATOM      1  C   UNL     1     -19.319 -40.953  21.437  0.00  0.00    +0.000 A 
ATOM      2  C   UNL     1     -19.315 -39.811  22.145  0.00  0.00    +0.000 A 
ATOM      3  C   UNL     1     -20.406 -39.028  22.175  0.00  0.00    +0.000 A 
ATOM      4  C   UNL     1     -21.498 -39.394  21.488  0.00  0.00    +0.000 A 
ATOM      5  C   UNL     1     -21.503 -40.537  20.780  0.00  0.00    +0.000 A 
ATOM      6  C   UNL     1     -20.415 -41.321  20.753  0.00  0.00    +0.000 A 
ATOM      7  C   UNL     1     -22.798 -38.615  21.449  0.00  0.00    +0.000 C 
ATOM      8  C   UNL     1     -23.098 -38.448  19.973  0.00  0.00    +0.000 A 
ATOM      9  C   UNL     1     -23.103 -39.591  19.265  0.00  0.00    +0.000 A 
ATOM     10  C   UNL     1     -22.807 -40.841  20.069  0.00  0.00    +0.000 C 
ATOM     11  C   UNL     1     -23.883 -39.567  21.993  0.00  0.00    +0.000 C 
ATOM     12  C   UNL     1     -23.887 -40.898  21.170  0.00  0.00    +0.000 C 
ATOM     13  C   UNL     1     -23.354 -37.278  19.370  0.00  0.00    +0.000 A 
ATOM     14  C   UNL     1     -23.612 -37.257  18.053  0.00  0.00    +0.000 A 
ATOM     15  C   UNL     1     -23.619 -41.971  22.214  0.00  0.00    +0.000 C 
ATOM     16  C   UNL     1     -23.616 -38.398  17.345  0.00  0.00    +0.000 A 
ATOM     17  C   UNL     1     -23.363 -39.571  17.949  0.00  0.00    +0.000 A 
ATOM     18  C   UNL     1     -23.614 -40.026  23.418  0.00  0.00    +0.000 C 
ATOM     19  N   UNL     1     -23.464 -41.389  23.448  0.00  0.00    +0.000 N 
ATOM     20  O   UNL     1     -23.543 -43.156  21.995  0.00  0.00    +0.000 OA
ATOM     21  O   UNL     1     -23.533 -39.305  24.384  0.00  0.00    +0.000 OA
ENDROOT
BRANCH  19  22
ATOM     22  C   UNL     1     -23.198 -42.139  24.669  0.00  0.00    +0.000 C 
BRANCH  22  23
ATOM     23  C   UNL     1     -21.744 -42.546  24.696  0.00  0.00    +0.000 C 
ATOM     24  C   UNL     1     -20.788 -41.838  25.320  0.00  0.00    +0.000 C 
BRANCH  24  25
ATOM     25  C   UNL     1     -19.472 -42.124  25.409  0.00  0.00    +0.000 A 
ATOM     26  C   UNL     1     -18.867 -42.060  26.611  0.00  0.00    +0.000 A 
ATOM     27  C   UNL     1     -17.562 -42.334  26.762  0.00  0.00    +0.000 A 
ATOM     28  C   UNL     1     -16.791 -42.663  25.711  0.00  0.00    +0.000 A 
ATOM     29  C   UNL     1     -17.397 -42.762  24.515  0.00  0.00    +0.000 A 
ATOM     30  C   UNL     1     -18.704 -42.488  24.365  0.00  0.00    +0.000 A 
BRANCH  28  31
ATOM     31  C   UNL     1     -15.337 -43.030  25.886  0.00  0.00    +0.000 C 
ATOM     32  F   UNL     1     -14.705 -42.039  26.497  0.00  0.00    +0.000 F 
ATOM     33  F   UNL     1     -14.720 -43.234  24.733  0.00  0.00    +0.000 F 
ATOM     34  F   UNL     1     -15.169 -44.114  26.627  0.00  0.00    +0.000 F 
ENDBRANCH  28  31
ENDBRANCH  24  25
ENDBRANCH  22  23
ENDBRANCH  19  22
TORSDOF 4
ENDMDL
MODEL 5
REMARK VINA RESULT:     -11.4      3.423      5.412
REMARK  Name = Fragment
REMARK  4 active torsions:
REMARK  status: ('A' for Active; 'I' for Inactive)
REMARK    1  A    between atoms: N_19  and  C_22
REMARK    2  A    between atoms: C_22  and  C_23
REMARK    3  A    between atoms: C_24  and  C_25
REMARK    4  A    between atoms: C_28  and  C_31
REMARK                            x       y       z     vdW  Elec       q    Type
REMARK                         _______ _______ _______ _____ _____    ______ ____
ROOT
ATOM      1  C   UNL     1     -19.160 -41.206  22.184  0.00  0.00    +0.000 A 
ATOM      2  C   UNL     1     -19.387 -39.883  22.232  0.00  0.00    +0.000 A 
ATOM      3  C   UNL     1     -20.641 -39.408  22.154  0.00  0.00    +0.000 A 
ATOM      4  C   UNL     1     -21.664 -40.267  22.025  0.00  0.00    +0.000 A 
ATOM      5  C   UNL     1     -21.436 -41.591  21.978  0.00  0.00    +0.000 A 
ATOM      6  C   UNL     1     -20.184 -42.066  22.059  0.00  0.00    +0.000 A 
ATOM      7  C   UNL     1     -23.124 -39.869  21.943  0.00  0.00    +0.000 C 
ATOM      8  C   UNL     1     -23.639 -40.558  20.697  0.00  0.00    +0.000 A 
ATOM      9  C   UNL     1     -23.411 -41.883  20.650  0.00  0.00    +0.000 A 
ATOM     10  C   UNL     1     -22.680 -42.447  21.852  0.00  0.00    +0.000 C 
ATOM     11  C   UNL     1     -23.823 -40.565  23.128  0.00  0.00    +0.000 C 
ATOM     12  C   UNL     1     -23.556 -42.106  23.075  0.00  0.00    +0.000 C 
ATOM     13  C   UNL     1     -24.284 -39.948  19.692  0.00  0.00    +0.000 A 
ATOM     14  C   UNL     1     -24.699 -40.668  18.639  0.00  0.00    +0.000 A 
ATOM     15  C   UNL     1     -22.872 -42.402  24.401  0.00  0.00    +0.000 C 
ATOM     16  C   UNL     1     -24.471 -41.992  18.591  0.00  0.00    +0.000 A 
ATOM     17  C   UNL     1     -23.827 -42.605  19.598  0.00  0.00    +0.000 A 
ATOM     18  C   UNL     1     -23.263 -40.149  24.480  0.00  0.00    +0.000 C 
ATOM     19  N   UNL     1     -22.735 -41.242  25.121  0.00  0.00    +0.000 N 
ATOM     20  O   UNL     1     -22.495 -43.490  24.765  0.00  0.00    +0.000 OA
ATOM     21  O   UNL     1     -23.268 -39.027  24.927  0.00  0.00    +0.000 OA
ENDROOT
BRANCH  19  22
ATOM     22  C   UNL     1     -22.121 -41.175  26.441  0.00  0.00    +0.000 C 
BRANCH  22  23
ATOM     23  C   UNL     1     -20.620 -41.233  26.295  0.00  0.00    +0.000 C 
ATOM     24  C   UNL     1     -19.895 -42.340  26.534  0.00  0.00    +0.000 C 
BRANCH  24  25
ATOM     25  C   UNL     1     -18.559 -42.493  26.421  0.00  0.00    +0.000 A 
ATOM     26  C   UNL     1     -18.021 -42.685  25.200  0.00  0.00    +0.000 A 
ATOM     27  C   UNL     1     -16.701 -42.843  25.025  0.00  0.00    +0.000 A 
ATOM     28  C   UNL     1     -15.853 -42.840  26.069  0.00  0.00    +0.000 A 
ATOM     29  C   UNL     1     -16.379 -42.613  27.284  0.00  0.00    +0.000 A 
ATOM     30  C   UNL     1     -17.702 -42.455  27.459  0.00  0.00    +0.000 A 
BRANCH  28  31
ATOM     31  C   UNL     1     -14.360 -42.958  25.869  0.00  0.00    +0.000 C 
ATOM     32  F   UNL     1     -14.052 -42.580  24.637  0.00  0.00    +0.000 F 
ATOM     33  F   UNL     1     -13.922 -44.197  26.018  0.00  0.00    +0.000 F 
ATOM     34  F   UNL     1     -13.671 -42.187  26.697  0.00  0.00    +0.000 F 
ENDBRANCH  28  31
ENDBRANCH  24  25
ENDBRANCH  22  23
ENDBRANCH  19  22
TORSDOF 4
ENDMDL
MODEL 6
REMARK VINA RESULT:     -11.2      5.646      9.119
REMARK  Name = Fragment
REMARK  4 active torsions:
REMARK  status: ('A' for Active; 'I' for Inactive)
REMARK    1  A    between atoms: N_19  and  C_22
REMARK    2  A    between atoms: C_22  and  C_23
REMARK    3  A    between atoms: C_24  and  C_25
REMARK    4  A    between atoms: C_28  and  C_31
REMARK                            x       y       z     vdW  Elec       q    Type
REMARK                         _______ _______ _______ _____ _____    ______ ____
ROOT
ATOM      1  C   UNL     1     -21.569 -45.665  25.845  0.00  0.00    +0.000 A 
ATOM      2  C   UNL     1     -21.691 -45.367  27.150  0.00  0.00    +0.000 A 
ATOM      3  C   UNL     1     -21.085 -44.281  27.656  0.00  0.00    +0.000 A 
ATOM      4  C   UNL     1     -20.353 -43.498  26.849  0.00  0.00    +0.000 A 
ATOM      5  C   UNL     1     -20.232 -43.796  25.543  0.00  0.00    +0.000 A 
ATOM      6  C   UNL     1     -20.841 -44.879  25.037  0.00  0.00    +0.000 A 
ATOM      7  C   UNL     1     -19.633 -42.238  27.284  0.00  0.00    +0.000 C 
ATOM      8  C   UNL     1     -18.208 -42.428  26.805  0.00  0.00    +0.000 A 
ATOM      9  C   UNL     1     -18.087 -42.725  25.499  0.00  0.00    +0.000 A 
ATOM     10  C   UNL     1     -19.396 -42.817  24.742  0.00  0.00    +0.000 C 
ATOM     11  C   UNL     1     -20.215 -41.095  26.428  0.00  0.00    +0.000 C 
ATOM     12  C   UNL     1     -20.076 -41.442  24.908  0.00  0.00    +0.000 C 
ATOM     13  C   UNL     1     -17.117 -42.312  27.576  0.00  0.00    +0.000 A 
ATOM     14  C   UNL     1     -15.903 -42.499  27.035  0.00  0.00    +0.000 A 
ATOM     15  C   UNL     1     -21.509 -41.419  24.398  0.00  0.00    +0.000 C 
ATOM     16  C   UNL     1     -15.781 -42.797  25.730  0.00  0.00    +0.000 A 
ATOM     17  C   UNL     1     -16.874 -42.909  24.956  0.00  0.00    +0.000 A 
ATOM     18  C   UNL     1     -21.713 -40.910  26.620  0.00  0.00    +0.000 C 
ATOM     19  N   UNL     1     -22.364 -41.126  25.431  0.00  0.00    +0.000 N 
ATOM     20  O   UNL     1     -21.849 -41.635  23.260  0.00  0.00    +0.000 OA
ATOM     21  O   UNL     1     -22.258 -40.626  27.659  0.00  0.00    +0.000 OA
ENDROOT
BRANCH  19  22
ATOM     22  C   UNL     1     -23.811 -41.023  25.281  0.00  0.00    +0.000 C 
BRANCH  22  23
ATOM     23  C   UNL     1     -24.429 -42.385  25.479  0.00  0.00    +0.000 C 
ATOM     24  C   UNL     1     -24.403 -43.048  26.648  0.00  0.00    +0.000 C 
BRANCH  24  25
ATOM     25  C   UNL     1     -24.934 -44.257  26.925  0.00  0.00    +0.000 A 
ATOM     26  C   UNL     1     -25.153 -44.598  28.210  0.00  0.00    +0.000 A 
ATOM     27  C   UNL     1     -25.678 -45.785  28.547  0.00  0.00    +0.000 A 
ATOM     28  C   UNL     1     -25.990 -46.702  27.614  0.00  0.00    +0.000 A 
ATOM     29  C   UNL     1     -25.808 -46.353  26.329  0.00  0.00    +0.000 A 
ATOM     30  C   UNL     1     -25.281 -45.164  25.992  0.00  0.00    +0.000 A 
BRANCH  28  31
ATOM     31  C   UNL     1     -26.638 -48.015  27.987  0.00  0.00    +0.000 C 
ATOM     32  F   UNL     1     -26.233 -48.376  29.194  0.00  0.00    +0.000 F 
ATOM     33  F   UNL     1     -26.316 -48.995  27.157  0.00  0.00    +0.000 F 
ATOM     34  F   UNL     1     -27.960 -47.940  28.025  0.00  0.00    +0.000 F 
ENDBRANCH  28  31
ENDBRANCH  24  25
ENDBRANCH  22  23
ENDBRANCH  19  22
TORSDOF 4
ENDMDL
MODEL 7
REMARK VINA RESULT:     -11.1     24.885     27.101
REMARK  Name = Fragment
REMARK  4 active torsions:
REMARK  status: ('A' for Active; 'I' for Inactive)
REMARK    1  A    between atoms: N_19  and  C_22
REMARK    2  A    between atoms: C_22  and  C_23
REMARK    3  A    between atoms: C_24  and  C_25
REMARK    4  A    between atoms: C_28  and  C_31
REMARK                            x       y       z     vdW  Elec       q    Type
REMARK                         _______ _______ _______ _____ _____    ______ ____
ROOT
ATOM      1  C   UNL     1      -0.271 -58.377  12.090  0.00  0.00    +0.000 A 
ATOM      2  C   UNL     1      -0.114 -59.232  11.066  0.00  0.00    +0.000 A 
ATOM      3  C   UNL     1      -1.109 -59.425  10.185  0.00  0.00    +0.000 A 
ATOM      4  C   UNL     1      -2.263 -58.758  10.339  0.00  0.00    +0.000 A 
ATOM      5  C   UNL     1      -2.420 -57.901  11.363  0.00  0.00    +0.000 A 
ATOM      6  C   UNL     1      -1.424 -57.706  12.241  0.00  0.00    +0.000 A 
ATOM      7  C   UNL     1      -3.457 -58.868   9.412  0.00  0.00    +0.000 C 
ATOM      8  C   UNL     1      -4.624 -59.178  10.328  0.00  0.00    +0.000 A 
ATOM      9  C   UNL     1      -4.781 -58.321  11.352  0.00  0.00    +0.000 A 
ATOM     10  C   UNL     1      -3.763 -57.200  11.406  0.00  0.00    +0.000 C 
ATOM     11  C   UNL     1      -3.712 -57.446   8.874  0.00  0.00    +0.000 C 
ATOM     12  C   UNL     1      -3.893 -56.448  10.066  0.00  0.00    +0.000 C 
ATOM     13  C   UNL     1      -5.470 -60.207  10.172  0.00  0.00    +0.000 A 
ATOM     14  C   UNL     1      -6.472 -60.376  11.048  0.00  0.00    +0.000 A 
ATOM     15  C   UNL     1      -2.793 -55.420   9.848  0.00  0.00    +0.000 C 
ATOM     16  C   UNL     1      -6.629 -59.521  12.072  0.00  0.00    +0.000 A 
ATOM     17  C   UNL     1      -5.785 -58.488  12.227  0.00  0.00    +0.000 A 
ATOM     18  C   UNL     1      -2.529 -56.878   8.104  0.00  0.00    +0.000 C 
ATOM     19  N   UNL     1      -2.066 -55.748   8.731  0.00  0.00    +0.000 N 
ATOM     20  O   UNL     1      -2.581 -54.464  10.554  0.00  0.00    +0.000 OA
ATOM     21  O   UNL     1      -2.055 -57.348   7.098  0.00  0.00    +0.000 OA
ENDROOT
BRANCH  19  22
ATOM     22  C   UNL     1      -0.938 -54.967   8.240  0.00  0.00    +0.000 C 
BRANCH  22  23
ATOM     23  C   UNL     1       0.091 -54.834   9.336  0.00  0.00    +0.000 C 
ATOM     24  C   UNL     1       0.867 -55.850   9.751  0.00  0.00    +0.000 C 
BRANCH  24  25
ATOM     25  C   UNL     1       1.816 -55.828  10.709  0.00  0.00    +0.000 A 
ATOM     26  C   UNL     1       1.779 -54.861  11.647  0.00  0.00    +0.000 A 
ATOM     27  C   UNL     1       2.695 -54.787  12.625  0.00  0.00    +0.000 A 
ATOM     28  C   UNL     1       3.709 -55.666  12.699  0.00  0.00    +0.000 A 
ATOM     29  C   UNL     1       3.731 -56.654  11.788  0.00  0.00    +0.000 A 
ATOM     30  C   UNL     1       2.814 -56.727  10.809  0.00  0.00    +0.000 A 
BRANCH  28  31
ATOM     31  C   UNL     1       4.706 -55.622  13.833  0.00  0.00    +0.000 C 
ATOM     32  F   UNL     1       5.331 -56.787  13.912  0.00  0.00    +0.000 F 
ATOM     33  F   UNL     1       4.134 -55.406  15.006  0.00  0.00    +0.000 F 
ATOM     34  F   UNL     1       5.634 -54.693  13.662  0.00  0.00    +0.000 F 
ENDBRANCH  28  31
ENDBRANCH  24  25
ENDBRANCH  22  23
ENDBRANCH  19  22
TORSDOF 4
ENDMDL
MODEL 8
REMARK VINA RESULT:     -10.7      2.889      4.397
REMARK  Name = Fragment
REMARK  4 active torsions:
REMARK  status: ('A' for Active; 'I' for Inactive)
REMARK    1  A    between atoms: N_19  and  C_22
REMARK    2  A    between atoms: C_22  and  C_23
REMARK    3  A    between atoms: C_24  and  C_25
REMARK    4  A    between atoms: C_28  and  C_31
REMARK                            x       y       z     vdW  Elec       q    Type
REMARK                         _______ _______ _______ _____ _____    ______ ____
ROOT
ATOM      1  C   UNL     1     -20.916 -42.073  25.252  0.00  0.00    +0.000 A 
ATOM      2  C   UNL     1     -21.004 -43.212  24.545  0.00  0.00    +0.000 A 
ATOM      3  C   UNL     1     -21.726 -43.254  23.414  0.00  0.00    +0.000 A 
ATOM      4  C   UNL     1     -22.361 -42.148  22.997  0.00  0.00    +0.000 A 
ATOM      5  C   UNL     1     -22.272 -41.007  23.704  0.00  0.00    +0.000 A 
ATOM      6  C   UNL     1     -21.548 -40.965  24.832  0.00  0.00    +0.000 A 
ATOM      7  C   UNL     1     -23.193 -42.051  21.734  0.00  0.00    +0.000 C 
ATOM      8  C   UNL     1     -24.520 -41.483  22.193  0.00  0.00    +0.000 A 
ATOM      9  C   UNL     1     -24.431 -40.342  22.900  0.00  0.00    +0.000 A 
ATOM     10  C   UNL     1     -23.020 -39.830  23.110  0.00  0.00    +0.000 C 
ATOM     11  C   UNL     1     -22.539 -40.950  20.875  0.00  0.00    +0.000 C 
ATOM     12  C   UNL     1     -22.434 -39.623  21.698  0.00  0.00    +0.000 C 
ATOM     13  C   UNL     1     -25.719 -42.027  21.937  0.00  0.00    +0.000 A 
ATOM     14  C   UNL     1     -26.828 -41.427  22.395  0.00  0.00    +0.000 A 
ATOM     15  C   UNL     1     -20.943 -39.320  21.709  0.00  0.00    +0.000 C 
ATOM     16  C   UNL     1     -26.740 -40.287  23.101  0.00  0.00    +0.000 A 
ATOM     17  C   UNL     1     -25.540 -39.739  23.355  0.00  0.00    +0.000 A 
ATOM     18  C   UNL     1     -21.096 -41.260  20.505  0.00  0.00    +0.000 C 
ATOM     19  N   UNL     1     -20.266 -40.301  21.027  0.00  0.00    +0.000 N 
ATOM     20  O   UNL     1     -20.427 -38.369  22.244  0.00  0.00    +0.000 OA
ATOM     21  O   UNL     1     -20.726 -42.210  19.858  0.00  0.00    +0.000 OA
ENDROOT
BRANCH  19  22
ATOM     22  C   UNL     1     -18.819 -40.311  20.848  0.00  0.00    +0.000 C 
BRANCH  22  23
ATOM     23  C   UNL     1     -18.159 -40.700  22.148  0.00  0.00    +0.000 C 
ATOM     24  C   UNL     1     -17.581 -41.894  22.357  0.00  0.00    +0.000 C 
BRANCH  24  25
ATOM     25  C   UNL     1     -16.959 -42.328  23.474  0.00  0.00    +0.000 A 
ATOM     26  C   UNL     1     -15.673 -42.722  23.398  0.00  0.00    +0.000 A 
ATOM     27  C   UNL     1     -15.003 -43.162  24.473  0.00  0.00    +0.000 A 
ATOM     28  C   UNL     1     -15.595 -43.254  25.676  0.00  0.00    +0.000 A 
ATOM     29  C   UNL     1     -16.868 -42.829  25.766  0.00  0.00    +0.000 A 
ATOM     30  C   UNL     1     -17.538 -42.388  24.688  0.00  0.00    +0.000 A 
BRANCH  28  31
ATOM     31  C   UNL     1     -14.827 -43.692  26.901  0.00  0.00    +0.000 C 
ATOM     32  F   UNL     1     -13.713 -42.981  26.996  0.00  0.00    +0.000 F 
ATOM     33  F   UNL     1     -14.473 -44.966  26.851  0.00  0.00    +0.000 F 
ATOM     34  F   UNL     1     -15.505 -43.507  28.023  0.00  0.00    +0.000 F 
ENDBRANCH  28  31
ENDBRANCH  24  25
ENDBRANCH  22  23
ENDBRANCH  19  22
TORSDOF 4
ENDMDL
MODEL 9
REMARK VINA RESULT:     -10.7      7.863     11.020
REMARK  Name = Fragment
REMARK  4 active torsions:
REMARK  status: ('A' for Active; 'I' for Inactive)
REMARK    1  A    between atoms: N_19  and  C_22
REMARK    2  A    between atoms: C_22  and  C_23
REMARK    3  A    between atoms: C_24  and  C_25
REMARK    4  A    between atoms: C_28  and  C_31
REMARK                            x       y       z     vdW  Elec       q    Type
REMARK                         _______ _______ _______ _____ _____    ______ ____
ROOT
ATOM      1  C   UNL     1     -22.069 -43.648  20.713  0.00  0.00    +0.000 A 
ATOM      2  C   UNL     1     -23.108 -43.209  21.443  0.00  0.00    +0.000 A 
ATOM      3  C   UNL     1     -22.924 -42.273  22.389  0.00  0.00    +0.000 A 
ATOM      4  C   UNL     1     -21.693 -41.783  22.600  0.00  0.00    +0.000 A 
ATOM      5  C   UNL     1     -20.654 -42.222  21.869  0.00  0.00    +0.000 A 
ATOM      6  C   UNL     1     -20.838 -43.154  20.921  0.00  0.00    +0.000 A 
ATOM      7  C   UNL     1     -21.349 -40.716  23.619  0.00  0.00    +0.000 C 
ATOM      8  C   UNL     1     -20.211 -41.309  24.424  0.00  0.00    +0.000 A 
ATOM      9  C   UNL     1     -19.171 -41.748  23.692  0.00  0.00    +0.000 A 
ATOM     10  C   UNL     1     -19.325 -41.570  22.195  0.00  0.00    +0.000 C 
ATOM     11  C   UNL     1     -20.735 -39.546  22.822  0.00  0.00    +0.000 C 
ATOM     12  C   UNL     1     -19.526 -40.058  21.969  0.00  0.00    +0.000 C 
ATOM     13  C   UNL     1     -20.185 -41.407  25.761  0.00  0.00    +0.000 A 
ATOM     14  C   UNL     1     -19.115 -41.949  26.363  0.00  0.00    +0.000 A 
ATOM     15  C   UNL     1     -19.920 -39.714  20.541  0.00  0.00    +0.000 C 
ATOM     16  C   UNL     1     -18.076 -42.388  25.633  0.00  0.00    +0.000 A 
ATOM     17  C   UNL     1     -18.099 -42.288  24.293  0.00  0.00    +0.000 A 
ATOM     18  C   UNL     1     -21.686 -38.965  21.787  0.00  0.00    +0.000 C 
ATOM     19  N   UNL     1     -21.155 -39.116  20.531  0.00  0.00    +0.000 N 
ATOM     20  O   UNL     1     -19.254 -39.940  19.559  0.00  0.00    +0.000 OA
ATOM     21  O   UNL     1     -22.755 -38.455  22.024  0.00  0.00    +0.000 OA
ENDROOT
BRANCH  19  22
ATOM     22  C   UNL     1     -21.824 -38.659  19.319  0.00  0.00    +0.000 C 
BRANCH  22  23
ATOM     23  C   UNL     1     -22.415 -39.846  18.599  0.00  0.00    +0.000 C 
ATOM     24  C   UNL     1     -23.737 -40.058  18.480  0.00  0.00    +0.000 C 
BRANCH  24  25
ATOM     25  C   UNL     1     -24.358 -41.077  17.850  0.00  0.00    +0.000 A 
ATOM     26  C   UNL     1     -24.754 -40.914  16.572  0.00  0.00    +0.000 A 
ATOM     27  C   UNL     1     -25.375 -41.891  15.894  0.00  0.00    +0.000 A 
ATOM     28  C   UNL     1     -25.653 -43.073  16.470  0.00  0.00    +0.000 A 
ATOM     29  C   UNL     1     -25.229 -43.254  17.733  0.00  0.00    +0.000 A 
ATOM     30  C   UNL     1     -24.607 -42.275  18.411  0.00  0.00    +0.000 A 
BRANCH  28  31
ATOM     31  C   UNL     1     -26.298 -44.195  15.690  0.00  0.00    +0.000 C 
ATOM     32  F   UNL     1     -27.572 -43.904  15.476  0.00  0.00    +0.000 F 
ATOM     33  F   UNL     1     -26.265 -45.349  16.338  0.00  0.00    +0.000 F 
ATOM     34  F   UNL     1     -25.736 -44.384  14.507  0.00  0.00    +0.000 F 
ENDBRANCH  28  31
ENDBRANCH  24  25
ENDBRANCH  22  23
ENDBRANCH  19  22
TORSDOF 4
ENDMDL
MODEL 10
REMARK VINA RESULT:     -10.4      4.910      7.203
REMARK  Name = Fragment
REMARK  4 active torsions:
REMARK  status: ('A' for Active; 'I' for Inactive)
REMARK    1  A    between atoms: N_19  and  C_22
REMARK    2  A    between atoms: C_22  and  C_23
REMARK    3  A    between atoms: C_24  and  C_25
REMARK    4  A    between atoms: C_28  and  C_31
REMARK                            x       y       z     vdW  Elec       q    Type
REMARK                         _______ _______ _______ _____ _____    ______ ____
ROOT
ATOM      1  C   UNL     1     -22.336 -39.731  23.572  0.00  0.00    +0.000 A 
ATOM      2  C   UNL     1     -23.499 -40.401  23.528  0.00  0.00    +0.000 A 
ATOM      3  C   UNL     1     -24.246 -40.390  22.412  0.00  0.00    +0.000 A 
ATOM      4  C   UNL     1     -23.821 -39.700  21.342  0.00  0.00    +0.000 A 
ATOM      5  C   UNL     1     -22.656 -39.030  21.385  0.00  0.00    +0.000 A 
ATOM      6  C   UNL     1     -21.909 -39.044  22.499  0.00  0.00    +0.000 A 
ATOM      7  C   UNL     1     -24.554 -39.617  20.018  0.00  0.00    +0.000 C 
ATOM      8  C   UNL     1     -24.663 -38.133  19.735  0.00  0.00    +0.000 A 
ATOM      9  C   UNL     1     -23.498 -37.463  19.778  0.00  0.00    +0.000 A 
ATOM     10  C   UNL     1     -22.286 -38.312  20.103  0.00  0.00    +0.000 C 
ATOM     11  C   UNL     1     -23.585 -40.178  18.957  0.00  0.00    +0.000 C 
ATOM     12  C   UNL     1     -22.228 -39.399  19.009  0.00  0.00    +0.000 C 
ATOM     13  C   UNL     1     -25.804 -37.488  19.449  0.00  0.00    +0.000 A 
ATOM     14  C   UNL     1     -25.774 -36.168  19.210  0.00  0.00    +0.000 A 
ATOM     15  C   UNL     1     -21.199 -40.482  19.297  0.00  0.00    +0.000 C 
ATOM     16  C   UNL     1     -24.610 -35.498  19.254  0.00  0.00    +0.000 A 
ATOM     17  C   UNL     1     -23.467 -36.143  19.536  0.00  0.00    +0.000 A 
ATOM     18  C   UNL     1     -23.182 -41.621  19.220  0.00  0.00    +0.000 C 
ATOM     19  N   UNL     1     -21.826 -41.697  19.415  0.00  0.00    +0.000 N 
ATOM     20  O   UNL     1     -20.011 -40.303  19.416  0.00  0.00    +0.000 OA
ATOM     21  O   UNL     1     -23.936 -42.563  19.263  0.00  0.00    +0.000 OA
ENDROOT
BRANCH  19  22
ATOM     22  C   UNL     1     -21.126 -42.947  19.687  0.00  0.00    +0.000 C 
BRANCH  22  23
ATOM     23  C   UNL     1     -20.952 -43.104  21.178  0.00  0.00    +0.000 C 
ATOM     24  C   UNL     1     -20.077 -42.384  21.902  0.00  0.00    +0.000 C 
BRANCH  24  25
ATOM     25  C   UNL     1     -19.858 -42.444  23.232  0.00  0.00    +0.000 A 
ATOM     26  C   UNL     1     -18.673 -42.028  23.720  0.00  0.00    +0.000 A 
ATOM     27  C   UNL     1     -18.397 -42.063  25.033  0.00  0.00    +0.000 A 
ATOM     28  C   UNL     1     -19.287 -42.540  25.921  0.00  0.00    +0.000 A 
ATOM     29  C   UNL     1     -20.483 -42.922  25.443  0.00  0.00    +0.000 A 
ATOM     30  C   UNL     1     -20.759 -42.887  24.129  0.00  0.00    +0.000 A 
BRANCH  28  31
ATOM     31  C   UNL     1     -19.002 -42.524  27.405  0.00  0.00    +0.000 C 
ATOM     32  F   UNL     1     -19.327 -41.340  27.900  0.00  0.00    +0.000 F 
ATOM     33  F   UNL     1     -17.724 -42.726  27.681  0.00  0.00    +0.000 F 
ATOM     34  F   UNL     1     -19.703 -43.430  28.069  0.00  0.00    +0.000 F 
ENDBRANCH  28  31
ENDBRANCH  24  25
ENDBRANCH  22  23
ENDBRANCH  19  22
TORSDOF 4
ENDMDL
