MODEL 1
REMARK VINA RESULT:     -10.9      0.000      0.000
REMARK  Name = Fragment
REMARK  4 active torsions:
REMARK  status: ('A' for Active; 'I' for Inactive)
REMARK    1  A    between atoms: N_19  and  C_22
REMARK    2  A    between atoms: C_22  and  C_23
REMARK    3  A    between atoms: C_24  and  C_25
REMARK    4  A    between atoms: C_28  and  C_31
REMARK                            x       y       z     vdW  Elec       q    Type
REMARK                         _______ _______ _______ _____ _____    ______ ____
ROOT
ATOM      1  C   UNL     1     -19.608 -42.291  27.309  0.00  0.00    +0.000 A 
ATOM      2  C   UNL     1     -20.056 -43.544  27.130  0.00  0.00    +0.000 A 
ATOM      3  C   UNL     1     -21.234 -43.762  26.524  0.00  0.00    +0.000 A 
ATOM      4  C   UNL     1     -21.961 -42.717  26.102  0.00  0.00    +0.000 A 
ATOM      5  C   UNL     1     -21.511 -41.462  26.281  0.00  0.00    +0.000 A 
ATOM      6  C   UNL     1     -20.333 -41.244  26.882  0.00  0.00    +0.000 A 
ATOM      7  C   UNL     1     -23.295 -42.819  25.391  0.00  0.00    +0.000 C 
ATOM      8  C   UNL     1     -24.220 -41.918  26.185  0.00  0.00    +0.000 A 
ATOM      9  C   UNL     1     -23.772 -40.662  26.364  0.00  0.00    +0.000 A 
ATOM     10  C   UNL     1     -22.421 -40.378  25.737  0.00  0.00    +0.000 C 
ATOM     11  C   UNL     1     -23.107 -42.130  24.024  0.00  0.00    +0.000 C 
ATOM     12  C   UNL     1     -22.580 -40.671  24.231  0.00  0.00    +0.000 C 
ATOM     13  C   UNL     1     -25.405 -42.294  26.685  0.00  0.00    +0.000 A 
ATOM     14  C   UNL     1     -26.142 -41.404  27.370  0.00  0.00    +0.000 A 
ATOM     15  C   UNL     1     -21.261 -40.653  23.474  0.00  0.00    +0.000 C 
ATOM     16  C   UNL     1     -25.695 -40.151  27.548  0.00  0.00    +0.000 A 
ATOM     17  C   UNL     1     -24.509 -39.770  27.046  0.00  0.00    +0.000 A 
ATOM     18  C   UNL     1     -22.032 -42.785  23.169  0.00  0.00    +0.000 C 
ATOM     19  N   UNL     1     -21.025 -41.886  22.920  0.00  0.00    +0.000 N 
ATOM     20  O   UNL     1     -20.521 -39.702  23.378  0.00  0.00    +0.000 OA
ATOM     21  O   UNL     1     -22.050 -43.925  22.773  0.00  0.00    +0.000 OA
ATOM     35  F   UNL     1     -24.075 -38.533  27.223  0.00  0.00    +0.000 F 
ENDROOT
BRANCH  19  22
ATOM     22  C   UNL     1     -19.847 -42.207  22.125  0.00  0.00    +0.000 C 
BRANCH  22  23
ATOM     23  C   UNL     1     -18.821 -42.880  23.004  0.00  0.00    +0.000 C 
ATOM     24  C   UNL     1     -17.722 -42.262  23.468  0.00  0.00    +0.000 C 
BRANCH  24  25
ATOM     25  C   UNL     1     -16.760 -42.774  24.264  0.00  0.00    +0.000 A 
ATOM     26  C   UNL     1     -16.858 -42.612  25.598  0.00  0.00    +0.000 A 
ATOM     27  C   UNL     1     -15.933 -43.098  26.440  0.00  0.00    +0.000 A 
ATOM     28  C   UNL     1     -14.850 -43.751  25.986  0.00  0.00    +0.000 A 
ATOM     29  C   UNL     1     -14.765 -43.947  24.659  0.00  0.00    +0.000 A 
ATOM     30  C   UNL     1     -15.691 -43.461  23.816  0.00  0.00    +0.000 A 
BRANCH  28  31
ATOM     31  C   UNL     1     -13.839 -44.351  26.934  0.00  0.00    +0.000 C 
ATOM     32  F   UNL     1     -12.752 -43.607  27.063  0.00  0.00    +0.000 F 
ATOM     33  F   UNL     1     -14.333 -44.552  28.146  0.00  0.00    +0.000 F 
ATOM     34  F   UNL     1     -13.452 -45.531  26.472  0.00  0.00    +0.000 F 
ENDBRANCH  28  31
ENDBRANCH  24  25
ENDBRANCH  22  23
ENDBRANCH  19  22
TORSDOF 4
ENDMDL
MODEL 2
REMARK VINA RESULT:     -10.5      3.128      4.436
REMARK  Name = Fragment
REMARK  4 active torsions:
REMARK  status: ('A' for Active; 'I' for Inactive)
REMARK    1  A    between atoms: N_19  and  C_22
REMARK    2  A    between atoms: C_22  and  C_23
REMARK    3  A    between atoms: C_24  and  C_25
REMARK    4  A    between atoms: C_28  and  C_31
REMARK                            x       y       z     vdW  Elec       q    Type
REMARK                         _______ _______ _______ _____ _____    ______ ____
ROOT
ATOM      1  C   UNL     1     -20.939 -44.944  27.625  0.00  0.00    +0.000 A 
ATOM      2  C   UNL     1     -21.055 -45.232  26.318  0.00  0.00    +0.000 A 
ATOM      3  C   UNL     1     -22.260 -45.222  25.728  0.00  0.00    +0.000 A 
ATOM      4  C   UNL     1     -23.349 -44.925  26.454  0.00  0.00    +0.000 A 
ATOM      5  C   UNL     1     -23.231 -44.636  27.763  0.00  0.00    +0.000 A 
ATOM      6  C   UNL     1     -22.027 -44.642  28.353  0.00  0.00    +0.000 A 
ATOM      7  C   UNL     1     -24.762 -44.861  25.913  0.00  0.00    +0.000 C 
ATOM      8  C   UNL     1     -25.564 -45.756  26.837  0.00  0.00    +0.000 A 
ATOM      9  C   UNL     1     -25.449 -45.468  28.146  0.00  0.00    +0.000 A 
ATOM     10  C   UNL     1     -24.535 -44.298  28.458  0.00  0.00    +0.000 C 
ATOM     11  C   UNL     1     -25.259 -43.426  26.180  0.00  0.00    +0.000 C 
ATOM     12  C   UNL     1     -25.120 -43.088  27.701  0.00  0.00    +0.000 C 
ATOM     13  C   UNL     1     -26.348 -46.764  26.430  0.00  0.00    +0.000 A 
ATOM     14  C   UNL     1     -27.016 -47.487  27.343  0.00  0.00    +0.000 A 
ATOM     15  C   UNL     1     -24.206 -41.872  27.719  0.00  0.00    +0.000 C 
ATOM     16  C   UNL     1     -26.901 -47.199  28.649  0.00  0.00    +0.000 A 
ATOM     17  C   UNL     1     -26.119 -46.188  29.060  0.00  0.00    +0.000 A 
ATOM     18  C   UNL     1     -24.412 -42.365  25.494  0.00  0.00    +0.000 C 
ATOM     19  N   UNL     1     -23.846 -41.543  26.436  0.00  0.00    +0.000 N 
ATOM     20  O   UNL     1     -23.841 -41.284  28.709  0.00  0.00    +0.000 OA
ATOM     21  O   UNL     1     -24.250 -42.259  24.302  0.00  0.00    +0.000 OA
ATOM     35  F   UNL     1     -26.012 -45.908  30.349  0.00  0.00    +0.000 F 
ENDROOT
BRANCH  19  22
ATOM     22  C   UNL     1     -22.978 -40.421  26.100  0.00  0.00    +0.000 C 
BRANCH  22  23
ATOM     23  C   UNL     1     -21.576 -40.930  25.866  0.00  0.00    +0.000 C 
ATOM     24  C   UNL     1     -20.742 -41.286  26.857  0.00  0.00    +0.000 C 
BRANCH  24  25
ATOM     25  C   UNL     1     -19.483 -41.760  26.747  0.00  0.00    +0.000 A 
ATOM     26  C   UNL     1     -18.976 -41.995  25.521  0.00  0.00    +0.000 A 
ATOM     27  C   UNL     1     -17.731 -42.466  25.348  0.00  0.00    +0.000 A 
ATOM     28  C   UNL     1     -16.940 -42.749  26.397  0.00  0.00    +0.000 A 
ATOM     29  C   UNL     1     -17.427 -42.481  27.621  0.00  0.00    +0.000 A 
ATOM     30  C   UNL     1     -18.673 -42.010  27.794  0.00  0.00    +0.000 A 
BRANCH  28  31
ATOM     31  C   UNL     1     -15.518 -43.221  26.205  0.00  0.00    +0.000 C 
ATOM     32  F   UNL     1     -15.121 -44.051  27.156  0.00  0.00    +0.000 F 
ATOM     33  F   UNL     1     -15.335 -43.827  25.042  0.00  0.00    +0.000 F 
ATOM     34  F   UNL     1     -14.702 -42.177  26.232  0.00  0.00    +0.000 F 
ENDBRANCH  28  31
ENDBRANCH  24  25
ENDBRANCH  22  23
ENDBRANCH  19  22
TORSDOF 4
ENDMDL
MODEL 3
REMARK VINA RESULT:     -10.4      3.663      5.695
REMARK  Name = Fragment
REMARK  4 active torsions:
REMARK  status: ('A' for Active; 'I' for Inactive)
REMARK    1  A    between atoms: N_19  and  C_22
REMARK    2  A    between atoms: C_22  and  C_23
REMARK    3  A    between atoms: C_24  and  C_25
REMARK    4  A    between atoms: C_28  and  C_31
REMARK                            x       y       z     vdW  Elec       q    Type
REMARK                         _______ _______ _______ _____ _____    ______ ____
ROOT
ATOM      1  C   UNL     1     -19.526 -40.911  21.247  0.00  0.00    +0.000 A 
ATOM      2  C   UNL     1     -19.437 -39.856  22.073  0.00  0.00    +0.000 A 
ATOM      3  C   UNL     1     -20.466 -39.001  22.192  0.00  0.00    +0.000 A 
ATOM      4  C   UNL     1     -21.581 -39.207  21.475  0.00  0.00    +0.000 A 
ATOM      5  C   UNL     1     -21.669 -40.264  20.648  0.00  0.00    +0.000 A 
ATOM      6  C   UNL     1     -20.643 -41.121  20.532  0.00  0.00    +0.000 A 
ATOM      7  C   UNL     1     -22.818 -38.334  21.524  0.00  0.00    +0.000 C 
ATOM      8  C   UNL     1     -23.097 -37.987  20.076  0.00  0.00    +0.000 A 
ATOM      9  C   UNL     1     -23.186 -39.043  19.246  0.00  0.00    +0.000 A 
ATOM     10  C   UNL     1     -22.990 -40.390  19.916  0.00  0.00    +0.000 C 
ATOM     11  C   UNL     1     -23.974 -39.253  21.968  0.00  0.00    +0.000 C 
ATOM     12  C   UNL     1     -24.075 -40.484  21.008  0.00  0.00    +0.000 C 
ATOM     13  C   UNL     1     -23.258 -36.741  19.607  0.00  0.00    +0.000 A 
ATOM     14  C   UNL     1     -23.507 -36.557  18.301  0.00  0.00    +0.000 A 
ATOM     15  C   UNL     1     -23.891 -41.679  21.933  0.00  0.00    +0.000 C 
ATOM     16  C   UNL     1     -23.596 -37.611  17.475  0.00  0.00    +0.000 A 
ATOM     17  C   UNL     1     -23.438 -38.861  17.940  0.00  0.00    +0.000 A 
ATOM     18  C   UNL     1     -23.748 -39.878  23.336  0.00  0.00    +0.000 C 
ATOM     19  N   UNL     1     -23.700 -41.244  23.221  0.00  0.00    +0.000 N 
ATOM     20  O   UNL     1     -23.903 -42.837  21.591  0.00  0.00    +0.000 OA
ATOM     21  O   UNL     1     -23.619 -39.270  24.372  0.00  0.00    +0.000 OA
ATOM     35  F   UNL     1     -23.530 -39.895  17.121  0.00  0.00    +0.000 F 
ENDROOT
BRANCH  19  22
ATOM     22  C   UNL     1     -23.497 -42.136  24.355  0.00  0.00    +0.000 C 
BRANCH  22  23
ATOM     23  C   UNL     1     -22.038 -42.515  24.436  0.00  0.00    +0.000 C 
ATOM     24  C   UNL     1     -21.143 -41.860  25.193  0.00  0.00    +0.000 C 
BRANCH  24  25
ATOM     25  C   UNL     1     -19.828 -42.130  25.339  0.00  0.00    +0.000 A 
ATOM     26  C   UNL     1     -19.278 -42.063  26.567  0.00  0.00    +0.000 A 
ATOM     27  C   UNL     1     -17.977 -42.321  26.775  0.00  0.00    +0.000 A 
ATOM     28  C   UNL     1     -17.157 -42.634  25.757  0.00  0.00    +0.000 A 
ATOM     29  C   UNL     1     -17.708 -42.737  24.536  0.00  0.00    +0.000 A 
ATOM     30  C   UNL     1     -19.010 -42.480  24.329  0.00  0.00    +0.000 A 
BRANCH  28  31
ATOM     31  C   UNL     1     -15.707 -42.984  25.996  0.00  0.00    +0.000 C 
ATOM     32  F   UNL     1     -14.902 -41.939  25.876  0.00  0.00    +0.000 F 
ATOM     33  F   UNL     1     -15.500 -43.513  27.192  0.00  0.00    +0.000 F 
ATOM     34  F   UNL     1     -15.319 -43.881  25.101  0.00  0.00    +0.000 F 
ENDBRANCH  28  31
ENDBRANCH  24  25
ENDBRANCH  22  23
ENDBRANCH  19  22
TORSDOF 4
ENDMDL
MODEL 4
REMARK VINA RESULT:     -10.2      3.896      7.894
REMARK  Name = Fragment
REMARK  4 active torsions:
REMARK  status: ('A' for Active; 'I' for Inactive)
REMARK    1  A    between atoms: N_19  and  C_22
REMARK    2  A    between atoms: C_22  and  C_23
REMARK    3  A    between atoms: C_24  and  C_25
REMARK    4  A    between atoms: C_28  and  C_31
REMARK                            x       y       z     vdW  Elec       q    Type
REMARK                         _______ _______ _______ _____ _____    ______ ____
ROOT
ATOM      1  C   UNL     1     -21.610 -45.691  25.946  0.00  0.00    +0.000 A 
ATOM      2  C   UNL     1     -21.532 -45.340  27.240  0.00  0.00    +0.000 A 
ATOM      3  C   UNL     1     -20.852 -44.242  27.604  0.00  0.00    +0.000 A 
ATOM      4  C   UNL     1     -20.247 -43.499  26.665  0.00  0.00    +0.000 A 
ATOM      5  C   UNL     1     -20.326 -43.850  25.369  0.00  0.00    +0.000 A 
ATOM      6  C   UNL     1     -21.009 -44.945  25.004  0.00  0.00    +0.000 A 
ATOM      7  C   UNL     1     -19.463 -42.231  26.933  0.00  0.00    +0.000 C 
ATOM      8  C   UNL     1     -18.128 -42.457  26.253  0.00  0.00    +0.000 A 
ATOM      9  C   UNL     1     -18.205 -42.807  24.956  0.00  0.00    +0.000 A 
ATOM     10  C   UNL     1     -19.617 -42.912  24.412  0.00  0.00    +0.000 C 
ATOM     11  C   UNL     1     -20.163 -41.116  26.129  0.00  0.00    +0.000 C 
ATOM     12  C   UNL     1     -20.258 -41.525  24.622  0.00  0.00    +0.000 C 
ATOM     13  C   UNL     1     -16.936 -42.323  26.851  0.00  0.00    +0.000 A 
ATOM     14  C   UNL     1     -15.817 -42.546  26.143  0.00  0.00    +0.000 A 
ATOM     15  C   UNL     1     -21.752 -41.506  24.336  0.00  0.00    +0.000 C 
ATOM     16  C   UNL     1     -15.894 -42.895  24.849  0.00  0.00    +0.000 A 
ATOM     17  C   UNL     1     -17.086 -43.028  24.246  0.00  0.00    +0.000 A 
ATOM     18  C   UNL     1     -21.612 -40.905  26.539  0.00  0.00    +0.000 C 
ATOM     19  N   UNL     1     -22.438 -41.160  25.473  0.00  0.00    +0.000 N 
ATOM     20  O   UNL     1     -22.265 -41.764  23.273  0.00  0.00    +0.000 OA
ATOM     21  O   UNL     1     -21.989 -40.571  27.636  0.00  0.00    +0.000 OA
ATOM     35  F   UNL     1     -17.155 -43.370  22.970  0.00  0.00    +0.000 F 
ENDROOT
BRANCH  19  22
ATOM     22  C   UNL     1     -23.889 -41.046  25.541  0.00  0.00    +0.000 C 
BRANCH  22  23
ATOM     23  C   UNL     1     -24.477 -42.381  25.929  0.00  0.00    +0.000 C 
ATOM     24  C   UNL     1     -24.246 -42.978  27.110  0.00  0.00    +0.000 C 
BRANCH  24  25
ATOM     25  C   UNL     1     -24.733 -44.157  27.549  0.00  0.00    +0.000 A 
ATOM     26  C   UNL     1     -24.700 -44.429  28.869  0.00  0.00    +0.000 A 
ATOM     27  C   UNL     1     -25.169 -45.584  29.366  0.00  0.00    +0.000 A 
ATOM     28  C   UNL     1     -25.672 -46.537  28.561  0.00  0.00    +0.000 A 
ATOM     29  C   UNL     1     -25.740 -46.256  27.249  0.00  0.00    +0.000 A 
ATOM     30  C   UNL     1     -25.271 -45.099  26.752  0.00  0.00    +0.000 A 
BRANCH  28  31
ATOM     31  C   UNL     1     -26.256 -47.812  29.123  0.00  0.00    +0.000 C 
ATOM     32  F   UNL     1     -26.166 -47.878  30.442  0.00  0.00    +0.000 F 
ATOM     33  F   UNL     1     -27.529 -47.975  28.800  0.00  0.00    +0.000 F 
ATOM     34  F   UNL     1     -25.594 -48.850  28.633  0.00  0.00    +0.000 F 
ENDBRANCH  28  31
ENDBRANCH  24  25
ENDBRANCH  22  23
ENDBRANCH  19  22
TORSDOF 4
ENDMDL
MODEL 5
REMARK VINA RESULT:      -9.9     25.924     28.292
REMARK  Name = Fragment
REMARK  4 active torsions:
REMARK  status: ('A' for Active; 'I' for Inactive)
REMARK    1  A    between atoms: N_19  and  C_22
REMARK    2  A    between atoms: C_22  and  C_23
REMARK    3  A    between atoms: C_24  and  C_25
REMARK    4  A    between atoms: C_28  and  C_31
REMARK                            x       y       z     vdW  Elec       q    Type
REMARK                         _______ _______ _______ _____ _____    ______ ____
ROOT
ATOM      1  C   UNL     1      -0.260 -58.424  12.061  0.00  0.00    +0.000 A 
ATOM      2  C   UNL     1      -0.050 -59.244  11.018  0.00  0.00    +0.000 A 
ATOM      3  C   UNL     1      -1.019 -59.445  10.110  0.00  0.00    +0.000 A 
ATOM      4  C   UNL     1      -2.199 -58.823  10.256  0.00  0.00    +0.000 A 
ATOM      5  C   UNL     1      -2.408 -58.003  11.301  0.00  0.00    +0.000 A 
ATOM      6  C   UNL     1      -1.439 -57.798  12.206  0.00  0.00    +0.000 A 
ATOM      7  C   UNL     1      -3.368 -58.947   9.301  0.00  0.00    +0.000 C 
ATOM      8  C   UNL     1      -4.541 -59.325  10.183  0.00  0.00    +0.000 A 
ATOM      9  C   UNL     1      -4.753 -58.504  11.228  0.00  0.00    +0.000 A 
ATOM     10  C   UNL     1      -3.775 -57.350  11.332  0.00  0.00    +0.000 C 
ATOM     11  C   UNL     1      -3.663 -57.520   8.796  0.00  0.00    +0.000 C 
ATOM     12  C   UNL     1      -3.903 -56.564  10.011  0.00  0.00    +0.000 C 
ATOM     13  C   UNL     1      -5.342 -60.380   9.976  0.00  0.00    +0.000 A 
ATOM     14  C   UNL     1      -6.356 -60.613  10.824  0.00  0.00    +0.000 A 
ATOM     15  C   UNL     1      -2.834 -55.494   9.845  0.00  0.00    +0.000 C 
ATOM     16  C   UNL     1      -6.567 -59.794  11.867  0.00  0.00    +0.000 A 
ATOM     17  C   UNL     1      -5.769 -58.734  12.076  0.00  0.00    +0.000 A 
ATOM     18  C   UNL     1      -2.486 -56.891   8.067  0.00  0.00    +0.000 C 
ATOM     19  N   UNL     1      -2.074 -55.765   8.734  0.00  0.00    +0.000 N 
ATOM     20  O   UNL     1      -2.667 -54.551  10.580  0.00  0.00    +0.000 OA
ATOM     21  O   UNL     1      -1.978 -57.317   7.058  0.00  0.00    +0.000 OA
ATOM     35  F   UNL     1      -5.984 -57.929  13.104  0.00  0.00    +0.000 F 
ENDROOT
BRANCH  19  22
ATOM     22  C   UNL     1      -0.965 -54.932   8.287  0.00  0.00    +0.000 C 
BRANCH  22  23
ATOM     23  C   UNL     1       0.049 -54.815   9.399  0.00  0.00    +0.000 C 
ATOM     24  C   UNL     1       0.863 -55.818   9.768  0.00  0.00    +0.000 C 
BRANCH  24  25
ATOM     25  C   UNL     1       1.804 -55.805  10.735  0.00  0.00    +0.000 A 
ATOM     26  C   UNL     1       1.753 -54.852  11.687  0.00  0.00    +0.000 A 
ATOM     27  C   UNL     1       2.660 -54.788  12.674  0.00  0.00    +0.000 A 
ATOM     28  C   UNL     1       3.679 -55.661  12.743  0.00  0.00    +0.000 A 
ATOM     29  C   UNL     1       3.715 -56.636  11.817  0.00  0.00    +0.000 A 
ATOM     30  C   UNL     1       2.806 -56.700  10.830  0.00  0.00    +0.000 A 
BRANCH  28  31
ATOM     31  C   UNL     1       4.666 -55.629  13.886  0.00  0.00    +0.000 C 
ATOM     32  F   UNL     1       5.600 -54.704  13.731  0.00  0.00    +0.000 F 
ATOM     33  F   UNL     1       4.084 -55.417  15.056  0.00  0.00    +0.000 F 
ATOM     34  F   UNL     1       5.284 -56.798  13.965  0.00  0.00    +0.000 F 
ENDBRANCH  28  31
ENDBRANCH  24  25
ENDBRANCH  22  23
ENDBRANCH  19  22
TORSDOF 4
ENDMDL
MODEL 6
REMARK VINA RESULT:      -9.5      4.804      6.636
REMARK  Name = Fragment
REMARK  4 active torsions:
REMARK  status: ('A' for Active; 'I' for Inactive)
REMARK    1  A    between atoms: N_19  and  C_22
REMARK    2  A    between atoms: C_22  and  C_23
REMARK    3  A    between atoms: C_24  and  C_25
REMARK    4  A    between atoms: C_28  and  C_31
REMARK                            x       y       z     vdW  Elec       q    Type
REMARK                         _______ _______ _______ _____ _____    ______ ____
ROOT
ATOM      1  C   UNL     1     -26.352 -40.658  19.873  0.00  0.00    +0.000 A 
ATOM      2  C   UNL     1     -25.809 -41.376  18.877  0.00  0.00    +0.000 A 
ATOM      3  C   UNL     1     -24.702 -40.941  18.255  0.00  0.00    +0.000 A 
ATOM      4  C   UNL     1     -24.145 -39.781  18.634  0.00  0.00    +0.000 A 
ATOM      5  C   UNL     1     -24.690 -39.062  19.632  0.00  0.00    +0.000 A 
ATOM      6  C   UNL     1     -25.794 -39.498  20.256  0.00  0.00    +0.000 A 
ATOM      7  C   UNL     1     -22.891 -39.183  18.031  0.00  0.00    +0.000 C 
ATOM      8  C   UNL     1     -23.286 -37.769  17.655  0.00  0.00    +0.000 A 
ATOM      9  C   UNL     1     -23.830 -37.048  18.652  0.00  0.00    +0.000 A 
ATOM     10  C   UNL     1     -23.949 -37.785  19.972  0.00  0.00    +0.000 C 
ATOM     11  C   UNL     1     -21.882 -39.045  19.189  0.00  0.00    +0.000 C 
ATOM     12  C   UNL     1     -22.516 -38.211  20.352  0.00  0.00    +0.000 C 
ATOM     13  C   UNL     1     -23.119 -37.229  16.439  0.00  0.00    +0.000 A 
ATOM     14  C   UNL     1     -23.504 -35.961  16.225  0.00  0.00    +0.000 A 
ATOM     15  C   UNL     1     -22.468 -39.158  21.542  0.00  0.00    +0.000 C 
ATOM     16  C   UNL     1     -24.047 -35.242  17.220  0.00  0.00    +0.000 A 
ATOM     17  C   UNL     1     -24.213 -35.778  18.440  0.00  0.00    +0.000 A 
ATOM     18  C   UNL     1     -21.538 -40.375  19.843  0.00  0.00    +0.000 C 
ATOM     19  N   UNL     1     -21.916 -40.355  21.162  0.00  0.00    +0.000 N 
ATOM     20  O   UNL     1     -22.863 -38.904  22.655  0.00  0.00    +0.000 OA
ATOM     21  O   UNL     1     -21.020 -41.314  19.289  0.00  0.00    +0.000 OA
ATOM     35  F   UNL     1     -24.746 -35.063  19.417  0.00  0.00    +0.000 F 
ENDROOT
BRANCH  19  22
ATOM     22  C   UNL     1     -21.721 -41.482  22.066  0.00  0.00    +0.000 C 
BRANCH  22  23
ATOM     23  C   UNL     1     -20.277 -41.524  22.505  0.00  0.00    +0.000 C 
ATOM     24  C   UNL     1     -19.802 -42.401  23.405  0.00  0.00    +0.000 C 
BRANCH  24  25
ATOM     25  C   UNL     1     -18.534 -42.523  23.849  0.00  0.00    +0.000 A 
ATOM     26  C   UNL     1     -18.293 -42.451  25.173  0.00  0.00    +0.000 A 
ATOM     27  C   UNL     1     -17.054 -42.565  25.675  0.00  0.00    +0.000 A 
ATOM     28  C   UNL     1     -15.989 -42.733  24.873  0.00  0.00    +0.000 A 
ATOM     29  C   UNL     1     -16.227 -42.842  23.554  0.00  0.00    +0.000 A 
ATOM     30  C   UNL     1     -17.467 -42.728  23.052  0.00  0.00    +0.000 A 
BRANCH  28  31
ATOM     31  C   UNL     1     -14.601 -42.923  25.438  0.00  0.00    +0.000 C 
ATOM     32  F   UNL     1     -13.652 -42.775  24.526  0.00  0.00    +0.000 F 
ATOM     33  F   UNL     1     -14.336 -42.088  26.430  0.00  0.00    +0.000 F 
ATOM     34  F   UNL     1     -14.489 -44.151  25.922  0.00  0.00    +0.000 F 
ENDBRANCH  28  31
ENDBRANCH  24  25
ENDBRANCH  22  23
ENDBRANCH  19  22
TORSDOF 4
ENDMDL
MODEL 7
REMARK VINA RESULT:      -9.4      5.794      9.302
REMARK  Name = Fragment
REMARK  4 active torsions:
REMARK  status: ('A' for Active; 'I' for Inactive)
REMARK    1  A    between atoms: N_19  and  C_22
REMARK    2  A    between atoms: C_22  and  C_23
REMARK    3  A    between atoms: C_24  and  C_25
REMARK    4  A    between atoms: C_28  and  C_31
REMARK                            x       y       z     vdW  Elec       q    Type
REMARK                         _______ _______ _______ _____ _____    ______ ____
ROOT
ATOM      1  C   UNL     1     -22.081 -43.525  20.532  0.00  0.00    +0.000 A 
ATOM      2  C   UNL     1     -23.151 -43.103  21.226  0.00  0.00    +0.000 A 
ATOM      3  C   UNL     1     -23.012 -42.172  22.184  0.00  0.00    +0.000 A 
ATOM      4  C   UNL     1     -21.795 -41.671  22.445  0.00  0.00    +0.000 A 
ATOM      5  C   UNL     1     -20.725 -42.095  21.750  0.00  0.00    +0.000 A 
ATOM      6  C   UNL     1     -20.863 -43.021  20.790  0.00  0.00    +0.000 A 
ATOM      7  C   UNL     1     -21.500 -40.610  23.484  0.00  0.00    +0.000 C 
ATOM      8  C   UNL     1     -20.387 -41.200  24.327  0.00  0.00    +0.000 A 
ATOM      9  C   UNL     1     -19.314 -41.623  23.633  0.00  0.00    +0.000 A 
ATOM     10  C   UNL     1     -19.417 -41.431  22.132  0.00  0.00    +0.000 C 
ATOM     11  C   UNL     1     -20.869 -39.427  22.721  0.00  0.00    +0.000 C 
ATOM     12  C   UNL     1     -19.625 -39.920  21.910  0.00  0.00    +0.000 C 
ATOM     13  C   UNL     1     -20.417 -41.308  25.662  0.00  0.00    +0.000 A 
ATOM     14  C   UNL     1     -19.367 -41.845  26.303  0.00  0.00    +0.000 A 
ATOM     15  C   UNL     1     -19.971 -39.568  20.471  0.00  0.00    +0.000 C 
ATOM     16  C   UNL     1     -18.297 -42.267  25.610  0.00  0.00    +0.000 A 
ATOM     17  C   UNL     1     -18.262 -42.159  24.272  0.00  0.00    +0.000 A 
ATOM     18  C   UNL     1     -21.788 -38.845  21.658  0.00  0.00    +0.000 C 
ATOM     19  N   UNL     1     -21.210 -38.980  20.421  0.00  0.00    +0.000 N 
ATOM     20  O   UNL     1     -19.269 -39.779  19.510  0.00  0.00    +0.000 OA
ATOM     21  O   UNL     1     -22.868 -38.346  21.862  0.00  0.00    +0.000 OA
ATOM     35  F   UNL     1     -17.203 -42.574  23.596  0.00  0.00    +0.000 F 
ENDROOT
BRANCH  19  22
ATOM     22  C   UNL     1     -21.840 -38.518  19.190  0.00  0.00    +0.000 C 
BRANCH  22  23
ATOM     23  C   UNL     1     -22.436 -39.698  18.462  0.00  0.00    +0.000 C 
ATOM     24  C   UNL     1     -23.743 -39.804  18.168  0.00  0.00    +0.000 C 
BRANCH  24  25
ATOM     25  C   UNL     1     -24.364 -40.808  17.514  0.00  0.00    +0.000 A 
ATOM     26  C   UNL     1     -24.665 -40.653  16.210  0.00  0.00    +0.000 A 
ATOM     27  C   UNL     1     -25.283 -41.615  15.507  0.00  0.00    +0.000 A 
ATOM     28  C   UNL     1     -25.651 -42.773  16.082  0.00  0.00    +0.000 A 
ATOM     29  C   UNL     1     -25.320 -42.947  17.374  0.00  0.00    +0.000 A 
ATOM     30  C   UNL     1     -24.702 -41.984  18.077  0.00  0.00    +0.000 A 
BRANCH  28  31
ATOM     31  C   UNL     1     -26.290 -43.881  15.279  0.00  0.00    +0.000 C 
ATOM     32  F   UNL     1     -25.985 -45.086  15.736  0.00  0.00    +0.000 F 
ATOM     33  F   UNL     1     -27.610 -43.789  15.244  0.00  0.00    +0.000 F 
ATOM     34  F   UNL     1     -25.861 -43.818  14.027  0.00  0.00    +0.000 F 
ENDBRANCH  28  31
ENDBRANCH  24  25
ENDBRANCH  22  23
ENDBRANCH  19  22
TORSDOF 4
ENDMDL
MODEL 8
REMARK VINA RESULT:      -8.9      2.398      8.428
REMARK  Name = Fragment
REMARK  4 active torsions:
REMARK  status: ('A' for Active; 'I' for Inactive)
REMARK    1  A    between atoms: N_19  and  C_22
REMARK    2  A    between atoms: C_22  and  C_23
REMARK    3  A    between atoms: C_24  and  C_25
REMARK    4  A    between atoms: C_28  and  C_31
REMARK                            x       y       z     vdW  Elec       q    Type
REMARK                         _______ _______ _______ _____ _____    ______ ____
ROOT
ATOM      1  C   UNL     1     -22.346 -40.063  26.665  0.00  0.00    +0.000 A 
ATOM      2  C   UNL     1     -22.782 -40.224  25.404  0.00  0.00    +0.000 A 
ATOM      3  C   UNL     1     -22.271 -41.194  24.630  0.00  0.00    +0.000 A 
ATOM      4  C   UNL     1     -21.318 -42.000  25.124  0.00  0.00    +0.000 A 
ATOM      5  C   UNL     1     -20.882 -41.838  26.386  0.00  0.00    +0.000 A 
ATOM      6  C   UNL     1     -21.395 -40.871  27.162  0.00  0.00    +0.000 A 
ATOM      7  C   UNL     1     -20.669 -43.140  24.368  0.00  0.00    +0.000 C 
ATOM      8  C   UNL     1     -19.181 -42.886  24.500  0.00  0.00    +0.000 A 
ATOM      9  C   UNL     1     -18.743 -42.726  25.762  0.00  0.00    +0.000 A 
ATOM     10  C   UNL     1     -19.821 -42.828  26.823  0.00  0.00    +0.000 C 
ATOM     11  C   UNL     1     -20.954 -44.415  25.188  0.00  0.00    +0.000 C 
ATOM     12  C   UNL     1     -20.450 -44.227  26.658  0.00  0.00    +0.000 C 
ATOM     13  C   UNL     1     -18.324 -42.825  23.471  0.00  0.00    +0.000 A 
ATOM     14  C   UNL     1     -17.023 -42.599  23.711  0.00  0.00    +0.000 A 
ATOM     15  C   UNL     1     -21.703 -44.424  27.497  0.00  0.00    +0.000 C 
ATOM     16  C   UNL     1     -16.586 -42.439  24.970  0.00  0.00    +0.000 A 
ATOM     17  C   UNL     1     -17.441 -42.502  26.004  0.00  0.00    +0.000 A 
ATOM     18  C   UNL     1     -22.439 -44.702  25.349  0.00  0.00    +0.000 C 
ATOM     19  N   UNL     1     -22.776 -44.673  26.679  0.00  0.00    +0.000 N 
ATOM     20  O   UNL     1     -21.755 -44.363  28.702  0.00  0.00    +0.000 OA
ATOM     21  O   UNL     1     -23.213 -44.915  24.447  0.00  0.00    +0.000 OA
ATOM     35  F   UNL     1     -17.003 -42.346  27.242  0.00  0.00    +0.000 F 
ENDROOT
BRANCH  19  22
ATOM     22  C   UNL     1     -24.129 -44.911  27.165  0.00  0.00    +0.000 C 
BRANCH  22  23
ATOM     23  C   UNL     1     -24.600 -43.705  27.940  0.00  0.00    +0.000 C 
ATOM     24  C   UNL     1     -24.830 -42.507  27.378  0.00  0.00    +0.000 C 
BRANCH  24  25
ATOM     25  C   UNL     1     -25.261 -41.379  27.983  0.00  0.00    +0.000 A 
ATOM     26  C   UNL     1     -24.857 -41.115  29.241  0.00  0.00    +0.000 A 
ATOM     27  C   UNL     1     -25.252 -40.011  29.894  0.00  0.00    +0.000 A 
ATOM     28  C   UNL     1     -26.092 -39.128  29.327  0.00  0.00    +0.000 A 
ATOM     29  C   UNL     1     -26.469 -39.368  28.059  0.00  0.00    +0.000 A 
ATOM     30  C   UNL     1     -26.073 -40.473  27.406  0.00  0.00    +0.000 A 
BRANCH  28  31
ATOM     31  C   UNL     1     -26.489 -37.854  30.036  0.00  0.00    +0.000 C 
ATOM     32  F   UNL     1     -27.671 -37.400  29.649  0.00  0.00    +0.000 F 
ATOM     33  F   UNL     1     -26.525 -37.993  31.352  0.00  0.00    +0.000 F 
ATOM     34  F   UNL     1     -25.601 -36.908  29.768  0.00  0.00    +0.000 F 
ENDBRANCH  28  31
ENDBRANCH  24  25
ENDBRANCH  22  23
ENDBRANCH  19  22
TORSDOF 4
ENDMDL
MODEL 9
REMARK VINA RESULT:      -8.9     26.613     29.922
REMARK  Name = Fragment
REMARK  4 active torsions:
REMARK  status: ('A' for Active; 'I' for Inactive)
REMARK    1  A    between atoms: N_19  and  C_22
REMARK    2  A    between atoms: C_22  and  C_23
REMARK    3  A    between atoms: C_24  and  C_25
REMARK    4  A    between atoms: C_28  and  C_31
REMARK                            x       y       z     vdW  Elec       q    Type
REMARK                         _______ _______ _______ _____ _____    ______ ____
ROOT
ATOM      1  C   UNL     1      -1.103 -58.949  11.090  0.00  0.00    +0.000 A 
ATOM      2  C   UNL     1      -1.730 -57.804  11.407  0.00  0.00    +0.000 A 
ATOM      3  C   UNL     1      -1.122 -56.623  11.210  0.00  0.00    +0.000 A 
ATOM      4  C   UNL     1       0.118 -56.596  10.699  0.00  0.00    +0.000 A 
ATOM      5  C   UNL     1       0.745 -57.744  10.382  0.00  0.00    +0.000 A 
ATOM      6  C   UNL     1       0.136 -58.923  10.573  0.00  0.00    +0.000 A 
ATOM      7  C   UNL     1       0.911 -55.338  10.412  0.00  0.00    +0.000 C 
ATOM      8  C   UNL     1       2.236 -55.555  11.114  0.00  0.00    +0.000 A 
ATOM      9  C   UNL     1       2.866 -56.701  10.797  0.00  0.00    +0.000 A 
ATOM     10  C   UNL     1       2.130 -57.569   9.793  0.00  0.00    +0.000 C 
ATOM     11  C   UNL     1       1.225 -55.364   8.902  0.00  0.00    +0.000 C 
ATOM     12  C   UNL     1       1.951 -56.700   8.532  0.00  0.00    +0.000 C 
ATOM     13  C   UNL     1       2.786 -54.698  11.986  0.00  0.00    +0.000 A 
ATOM     14  C   UNL     1       3.971 -54.996  12.543  0.00  0.00    +0.000 A 
ATOM     15  C   UNL     1       1.036 -57.332   7.494  0.00  0.00    +0.000 C 
ATOM     16  C   UNL     1       4.598 -56.140  12.226  0.00  0.00    +0.000 A 
ATOM     17  C   UNL     1       4.052 -57.000  11.351  0.00  0.00    +0.000 A 
ATOM     18  C   UNL     1      -0.024 -55.377   8.034  0.00  0.00    +0.000 C 
ATOM     19  N   UNL     1      -0.057 -56.527   7.285  0.00  0.00    +0.000 N 
ATOM     20  O   UNL     1       1.230 -58.387   6.939  0.00  0.00    +0.000 OA
ATOM     21  O   UNL     1      -0.869 -54.515   8.007  0.00  0.00    +0.000 OA
ATOM     35  F   UNL     1       4.676 -58.124  11.042  0.00  0.00    +0.000 F 
ENDROOT
BRANCH  19  22
ATOM     22  C   UNL     1      -1.127 -56.840   6.347  0.00  0.00    +0.000 C 
BRANCH  22  23
ATOM     23  C   UNL     1      -2.203 -57.622   7.062  0.00  0.00    +0.000 C 
ATOM     24  C   UNL     1      -2.915 -57.132   8.091  0.00  0.00    +0.000 C 
BRANCH  24  25
ATOM     25  C   UNL     1      -3.899 -57.746   8.781  0.00  0.00    +0.000 A 
ATOM     26  C   UNL     1      -4.014 -59.087   8.706  0.00  0.00    +0.000 A 
ATOM     27  C   UNL     1      -4.971 -59.754   9.369  0.00  0.00    +0.000 A 
ATOM     28  C   UNL     1      -5.878 -59.107  10.123  0.00  0.00    +0.000 A 
ATOM     29  C   UNL     1      -5.745 -57.774  10.230  0.00  0.00    +0.000 A 
ATOM     30  C   UNL     1      -4.787 -57.107   9.567  0.00  0.00    +0.000 A 
BRANCH  28  31
ATOM     31  C   UNL     1      -6.918 -59.860  10.919  0.00  0.00    +0.000 C 
ATOM     32  F   UNL     1      -6.609 -61.136  11.088  0.00  0.00    +0.000 F 
ATOM     33  F   UNL     1      -7.121 -59.335  12.117  0.00  0.00    +0.000 F 
ATOM     34  F   UNL     1      -8.075 -59.821  10.274  0.00  0.00    +0.000 F 
ENDBRANCH  28  31
ENDBRANCH  24  25
ENDBRANCH  22  23
ENDBRANCH  19  22
TORSDOF 4
ENDMDL
MODEL 10
REMARK VINA RESULT:      -8.7      4.403      5.993
REMARK  Name = Fragment
REMARK  4 active torsions:
REMARK  status: ('A' for Active; 'I' for Inactive)
REMARK    1  A    between atoms: N_19  and  C_22
REMARK    2  A    between atoms: C_22  and  C_23
REMARK    3  A    between atoms: C_24  and  C_25
REMARK    4  A    between atoms: C_28  and  C_31
REMARK                            x       y       z     vdW  Elec       q    Type
REMARK                         _______ _______ _______ _____ _____    ______ ____
ROOT
ATOM      1  C   UNL     1     -22.773 -39.577  23.450  0.00  0.00    +0.000 A 
ATOM      2  C   UNL     1     -23.902 -40.297  23.344  0.00  0.00    +0.000 A 
ATOM      3  C   UNL     1     -24.580 -40.326  22.185  0.00  0.00    +0.000 A 
ATOM      4  C   UNL     1     -24.122 -39.626  21.136  0.00  0.00    +0.000 A 
ATOM      5  C   UNL     1     -22.991 -38.905  21.243  0.00  0.00    +0.000 A 
ATOM      6  C   UNL     1     -22.312 -38.880  22.399  0.00  0.00    +0.000 A 
ATOM      7  C   UNL     1     -24.776 -39.582  19.770  0.00  0.00    +0.000 C 
ATOM      8  C   UNL     1     -24.932 -38.105  19.469  0.00  0.00    +0.000 A 
ATOM      9  C   UNL     1     -23.801 -37.383  19.575  0.00  0.00    +0.000 A 
ATOM     10  C   UNL     1     -22.577 -38.182  19.978  0.00  0.00    +0.000 C 
ATOM     11  C   UNL     1     -23.723 -40.107  18.773  0.00  0.00    +0.000 C 
ATOM     12  C   UNL     1     -22.406 -39.272  18.900  0.00  0.00    +0.000 C 
ATOM     13  C   UNL     1     -26.082 -37.517  19.113  0.00  0.00    +0.000 A 
ATOM     14  C   UNL     1     -26.097 -36.198  18.866  0.00  0.00    +0.000 A 
ATOM     15  C   UNL     1     -21.353 -40.309  19.259  0.00  0.00    +0.000 C 
ATOM     16  C   UNL     1     -24.969 -35.477  18.972  0.00  0.00    +0.000 A 
ATOM     17  C   UNL     1     -23.814 -36.063  19.326  0.00  0.00    +0.000 A 
ATOM     18  C   UNL     1     -23.278 -41.531  19.070  0.00  0.00    +0.000 C 
ATOM     19  N   UNL     1     -21.934 -41.550  19.347  0.00  0.00    +0.000 N 
ATOM     20  O   UNL     1     -20.182 -40.082  19.448  0.00  0.00    +0.000 OA
ATOM     21  O   UNL     1     -23.995 -42.503  19.073  0.00  0.00    +0.000 OA
ATOM     35  F   UNL     1     -22.706 -35.348  19.425  0.00  0.00    +0.000 F 
ENDROOT
BRANCH  19  22
ATOM     22  C   UNL     1     -21.202 -42.767  19.670  0.00  0.00    +0.000 C 
BRANCH  22  23
ATOM     23  C   UNL     1     -21.062 -42.882  21.169  0.00  0.00    +0.000 C 
ATOM     24  C   UNL     1     -20.016 -42.394  21.855  0.00  0.00    +0.000 C 
BRANCH  24  25
ATOM     25  C   UNL     1     -19.809 -42.437  23.188  0.00  0.00    +0.000 A 
ATOM     26  C   UNL     1     -18.618 -42.044  23.680  0.00  0.00    +0.000 A 
ATOM     27  C   UNL     1     -18.353 -42.064  24.996  0.00  0.00    +0.000 A 
ATOM     28  C   UNL     1     -19.262 -42.503  25.884  0.00  0.00    +0.000 A 
ATOM     29  C   UNL     1     -20.465 -42.862  25.402  0.00  0.00    +0.000 A 
ATOM     30  C   UNL     1     -20.729 -42.841  24.085  0.00  0.00    +0.000 A 
BRANCH  28  31
ATOM     31  C   UNL     1     -18.990 -42.469  27.369  0.00  0.00    +0.000 C 
ATOM     32  F   UNL     1     -17.720 -42.703  27.662  0.00  0.00    +0.000 F 
ATOM     33  F   UNL     1     -19.322 -41.314  27.922  0.00  0.00    +0.000 F 
ATOM     34  F   UNL     1     -19.708 -43.409  27.968  0.00  0.00    +0.000 F 
ENDBRANCH  28  31
ENDBRANCH  24  25
ENDBRANCH  22  23
ENDBRANCH  19  22
TORSDOF 4
ENDMDL
