MODEL 1
REMARK VINA RESULT:     -11.4      0.000      0.000
REMARK  Name = Fragment
REMARK  0 active torsions:
REMARK  status: ('A' for Active; 'I' for Inactive)
REMARK                            x       y       z     vdW  Elec       q    Type
REMARK                         _______ _______ _______ _____ _____    ______ ____
ROOT
ATOM      1  C   UNL     1     -13.395 -44.544  31.258  0.00  0.00    +0.000 A 
ATOM      2  C   UNL     1     -13.610 -43.798  32.351  0.00  0.00    +0.000 A 
ATOM      3  C   UNL     1     -12.689 -42.906  32.731  0.00  0.00    +0.000 A 
ATOM      4  C   UNL     1     -11.581 -42.777  31.993  0.00  0.00    +0.000 A 
ATOM      5  C   UNL     1     -11.366 -43.526  30.894  0.00  0.00    +0.000 A 
ATOM      6  C   UNL     1     -12.273 -44.454  30.508  0.00  0.00    +0.000 A 
ATOM      7  C   UNL     1     -12.149 -45.257  29.419  0.00  0.00    +0.000 A 
ATOM      8  C   UNL     1     -11.046 -45.924  28.983  0.00  0.00    +0.000 A 
ATOM      9  C   UNL     1     -11.129 -46.626  27.831  0.00  0.00    +0.000 A 
ATOM     10  C   UNL     1     -12.243 -46.708  27.093  0.00  0.00    +0.000 A 
ATOM     11  C   UNL     1     -13.336 -46.077  27.527  0.00  0.00    +0.000 A 
ATOM     12  C   UNL     1     -13.271 -45.377  28.668  0.00  0.00    +0.000 A 
ATOM     13  C   UNL     1     -10.108 -43.218  30.115  0.00  0.00    +0.000 C 
ATOM     14  C   UNL     1      -9.700 -46.127  29.679  0.00  0.00    +0.000 C 
ATOM     15  C   UNL     1      -9.017 -44.019  30.758  0.00  0.00    +0.000 C 
ATOM     16  C   UNL     1      -9.335 -45.467  31.011  0.00  0.00    +0.000 C 
ATOM     17  C   UNL     1      -8.093 -46.081  31.619  0.00  0.00    +0.000 C 
ATOM     18  N   UNL     1      -7.012 -45.476  31.875  0.00  0.00    +0.000 NA
ATOM     19  N   UNL     1      -6.937 -44.276  31.603  0.00  0.00    +0.000 N 
ATOM     20  C   UNL     1      -7.816 -43.525  31.083  0.00  0.00    +0.000 C 
ATOM     21  H   UNL     1      -6.003 -43.865  31.847  0.00  0.00    +0.000 HD
ENDROOT
TORSDOF 0
ENDMDL
MODEL 2
REMARK VINA RESULT:      -9.6      9.063     11.325
REMARK  Name = Fragment
REMARK  0 active torsions:
REMARK  status: ('A' for Active; 'I' for Inactive)
REMARK                            x       y       z     vdW  Elec       q    Type
REMARK                         _______ _______ _______ _____ _____    ______ ____
ROOT
ATOM      1  C   UNL     1     -18.912 -41.679  26.750  0.00  0.00    +0.000 A 
ATOM      2  C   UNL     1     -20.147 -41.389  27.185  0.00  0.00    +0.000 A 
ATOM      3  C   UNL     1     -21.202 -41.680  26.418  0.00  0.00    +0.000 A 
ATOM      4  C   UNL     1     -20.990 -42.270  25.236  0.00  0.00    +0.000 A 
ATOM      5  C   UNL     1     -19.749 -42.563  24.799  0.00  0.00    +0.000 A 
ATOM      6  C   UNL     1     -18.666 -42.252  25.549  0.00  0.00    +0.000 A 
ATOM      7  C   UNL     1     -17.378 -42.504  25.198  0.00  0.00    +0.000 A 
ATOM      8  C   UNL     1     -16.785 -42.334  23.985  0.00  0.00    +0.000 A 
ATOM      9  C   UNL     1     -15.494 -42.709  23.839  0.00  0.00    +0.000 A 
ATOM     10  C   UNL     1     -14.760 -43.236  24.826  0.00  0.00    +0.000 A 
ATOM     11  C   UNL     1     -15.328 -43.383  26.025  0.00  0.00    +0.000 A 
ATOM     12  C   UNL     1     -16.607 -43.016  26.187  0.00  0.00    +0.000 A 
ATOM     13  C   UNL     1     -19.666 -43.299  23.481  0.00  0.00    +0.000 C 
ATOM     14  C   UNL     1     -17.321 -41.636  22.734  0.00  0.00    +0.000 C 
ATOM     15  C   UNL     1     -19.689 -42.245  22.417  0.00  0.00    +0.000 C 
ATOM     16  C   UNL     1     -18.747 -41.090  22.624  0.00  0.00    +0.000 C 
ATOM     17  C   UNL     1     -18.908 -40.183  21.423  0.00  0.00    +0.000 C 
ATOM     18  N   UNL     1     -19.697 -40.365  20.452  0.00  0.00    +0.000 NA
ATOM     19  N   UNL     1     -20.405 -41.375  20.459  0.00  0.00    +0.000 N 
ATOM     20  C   UNL     1     -20.463 -42.297  21.327  0.00  0.00    +0.000 C 
ATOM     21  H   UNL     1     -21.022 -41.440  19.612  0.00  0.00    +0.000 HD
ENDROOT
TORSDOF 0
ENDMDL
MODEL 3
REMARK VINA RESULT:      -8.8      9.907     12.346
REMARK  Name = Fragment
REMARK  0 active torsions:
REMARK  status: ('A' for Active; 'I' for Inactive)
REMARK                            x       y       z     vdW  Elec       q    Type
REMARK                         _______ _______ _______ _____ _____    ______ ____
ROOT
ATOM      1  C   UNL     1     -17.070 -40.833  22.386  0.00  0.00    +0.000 A 
ATOM      2  C   UNL     1     -15.974 -41.488  22.798  0.00  0.00    +0.000 A 
ATOM      3  C   UNL     1     -16.105 -42.647  23.452  0.00  0.00    +0.000 A 
ATOM      4  C   UNL     1     -17.337 -43.125  23.665  0.00  0.00    +0.000 A 
ATOM      5  C   UNL     1     -18.438 -42.468  23.250  0.00  0.00    +0.000 A 
ATOM      6  C   UNL     1     -18.328 -41.280  22.610  0.00  0.00    +0.000 A 
ATOM      7  C   UNL     1     -19.373 -40.542  22.155  0.00  0.00    +0.000 A 
ATOM      8  C   UNL     1     -20.553 -40.276  22.777  0.00  0.00    +0.000 A 
ATOM      9  C   UNL     1     -21.488 -39.561  22.112  0.00  0.00    +0.000 A 
ATOM     10  C   UNL     1     -21.316 -39.092  20.870  0.00  0.00    +0.000 A 
ATOM     11  C   UNL     1     -20.151 -39.328  20.263  0.00  0.00    +0.000 A 
ATOM     12  C   UNL     1     -19.213 -40.034  20.908  0.00  0.00    +0.000 A 
ATOM     13  C   UNL     1     -19.757 -43.164  23.490  0.00  0.00    +0.000 C 
ATOM     14  C   UNL     1     -20.969 -40.554  24.223  0.00  0.00    +0.000 C 
ATOM     15  C   UNL     1     -20.174 -42.792  24.880  0.00  0.00    +0.000 C 
ATOM     16  C   UNL     1     -20.096 -41.328  25.214  0.00  0.00    +0.000 C 
ATOM     17  C   UNL     1     -20.597 -41.182  26.634  0.00  0.00    +0.000 C 
ATOM     18  N   UNL     1     -20.986 -42.121  27.387  0.00  0.00    +0.000 NA
ATOM     19  N   UNL     1     -20.972 -43.270  26.940  0.00  0.00    +0.000 N 
ATOM     20  C   UNL     1     -20.614 -43.669  25.791  0.00  0.00    +0.000 C 
ATOM     21  H   UNL     1     -21.315 -43.977  27.635  0.00  0.00    +0.000 HD
ENDROOT
TORSDOF 0
ENDMDL
MODEL 4
REMARK VINA RESULT:      -8.8      9.100     11.370
REMARK  Name = Fragment
REMARK  0 active torsions:
REMARK  status: ('A' for Active; 'I' for Inactive)
REMARK                            x       y       z     vdW  Elec       q    Type
REMARK                         _______ _______ _______ _____ _____    ______ ____
ROOT
ATOM      1  C   UNL     1     -21.819 -43.444  23.671  0.00  0.00    +0.000 A 
ATOM      2  C   UNL     1     -22.030 -44.590  24.335  0.00  0.00    +0.000 A 
ATOM      3  C   UNL     1     -21.233 -44.916  25.357  0.00  0.00    +0.000 A 
ATOM      4  C   UNL     1     -20.250 -44.072  25.696  0.00  0.00    +0.000 A 
ATOM      5  C   UNL     1     -20.040 -42.919  25.030  0.00  0.00    +0.000 A 
ATOM      6  C   UNL     1     -20.819 -42.585  23.974  0.00  0.00    +0.000 A 
ATOM      7  C   UNL     1     -20.687 -41.450  23.239  0.00  0.00    +0.000 A 
ATOM      8  C   UNL     1     -19.546 -40.867  22.784  0.00  0.00    +0.000 A 
ATOM      9  C   UNL     1     -19.641 -39.696  22.115  0.00  0.00    +0.000 A 
ATOM     10  C   UNL     1     -20.801 -39.076  21.869  0.00  0.00    +0.000 A 
ATOM     11  C   UNL     1     -21.927 -39.655  22.291  0.00  0.00    +0.000 A 
ATOM     12  C   UNL     1     -21.851 -40.816  22.956  0.00  0.00    +0.000 A 
ATOM     13  C   UNL     1     -18.945 -42.029  25.572  0.00  0.00    +0.000 C 
ATOM     14  C   UNL     1     -18.114 -41.407  22.789  0.00  0.00    +0.000 C 
ATOM     15  C   UNL     1     -17.673 -42.513  24.947  0.00  0.00    +0.000 C 
ATOM     16  C   UNL     1     -17.716 -42.724  23.458  0.00  0.00    +0.000 C 
ATOM     17  C   UNL     1     -16.330 -43.166  23.045  0.00  0.00    +0.000 C 
ATOM     18  N   UNL     1     -15.341 -43.336  23.815  0.00  0.00    +0.000 NA
ATOM     19  N   UNL     1     -15.497 -43.119  25.019  0.00  0.00    +0.000 N 
ATOM     20  C   UNL     1     -16.540 -42.734  25.626  0.00  0.00    +0.000 C 
ATOM     21  H   UNL     1     -14.622 -43.284  25.574  0.00  0.00    +0.000 HD
ENDROOT
TORSDOF 0
ENDMDL
MODEL 5
REMARK VINA RESULT:      -8.6     10.398     12.913
REMARK  Name = Fragment
REMARK  0 active torsions:
REMARK  status: ('A' for Active; 'I' for Inactive)
REMARK                            x       y       z     vdW  Elec       q    Type
REMARK                         _______ _______ _______ _____ _____    ______ ____
ROOT
ATOM      1  C   UNL     1     -17.575 -42.616  24.675  0.00  0.00    +0.000 A 
ATOM      2  C   UNL     1     -16.431 -42.817  24.005  0.00  0.00    +0.000 A 
ATOM      3  C   UNL     1     -16.264 -42.256  22.803  0.00  0.00    +0.000 A 
ATOM      4  C   UNL     1     -17.248 -41.493  22.312  0.00  0.00    +0.000 A 
ATOM      5  C   UNL     1     -18.397 -41.290  22.986  0.00  0.00    +0.000 A 
ATOM      6  C   UNL     1     -18.597 -41.872  24.192  0.00  0.00    +0.000 A 
ATOM      7  C   UNL     1     -19.716 -41.731  24.948  0.00  0.00    +0.000 A 
ATOM      8  C   UNL     1     -21.015 -41.754  24.545  0.00  0.00    +0.000 A 
ATOM      9  C   UNL     1     -21.981 -41.532  25.464  0.00  0.00    +0.000 A 
ATOM     10  C   UNL     1     -21.732 -41.294  26.757  0.00  0.00    +0.000 A 
ATOM     11  C   UNL     1     -20.461 -41.294  27.165  0.00  0.00    +0.000 A 
ATOM     12  C   UNL     1     -19.491 -41.513  26.266  0.00  0.00    +0.000 A 
ATOM     13  C   UNL     1     -19.386 -40.345  22.344  0.00  0.00    +0.000 C 
ATOM     14  C   UNL     1     -21.600 -42.137  23.184  0.00  0.00    +0.000 C 
ATOM     15  C   UNL     1     -20.198 -41.176  21.399  0.00  0.00    +0.000 C 
ATOM     16  C   UNL     1     -20.738 -42.462  21.962  0.00  0.00    +0.000 C 
ATOM     17  C   UNL     1     -21.550 -43.107  20.859  0.00  0.00    +0.000 C 
ATOM     18  N   UNL     1     -21.718 -42.649  19.693  0.00  0.00    +0.000 NA
ATOM     19  N   UNL     1     -21.187 -41.574  19.407  0.00  0.00    +0.000 N 
ATOM     20  C   UNL     1     -20.470 -40.826  20.136  0.00  0.00    +0.000 C 
ATOM     21  H   UNL     1     -21.386 -41.276  18.420  0.00  0.00    +0.000 HD
ENDROOT
TORSDOF 0
ENDMDL
MODEL 6
REMARK VINA RESULT:      -8.5     20.105     21.791
REMARK  Name = Fragment
REMARK  0 active torsions:
REMARK  status: ('A' for Active; 'I' for Inactive)
REMARK                            x       y       z     vdW  Elec       q    Type
REMARK                         _______ _______ _______ _____ _____    ______ ____
ROOT
ATOM      1  C   UNL     1      -1.199 -39.639  13.318  0.00  0.00    +0.000 A 
ATOM      2  C   UNL     1      -1.409 -40.771  14.005  0.00  0.00    +0.000 A 
ATOM      3  C   UNL     1      -2.323 -41.646  13.572  0.00  0.00    +0.000 A 
ATOM      4  C   UNL     1      -2.993 -41.366  12.448  0.00  0.00    +0.000 A 
ATOM      5  C   UNL     1      -2.781 -40.228  11.756  0.00  0.00    +0.000 A 
ATOM      6  C   UNL     1      -1.880 -39.317  12.194  0.00  0.00    +0.000 A 
ATOM      7  C   UNL     1      -1.595 -38.144  11.572  0.00  0.00    +0.000 A 
ATOM      8  C   UNL     1      -2.458 -37.255  11.010  0.00  0.00    +0.000 A 
ATOM      9  C   UNL     1      -1.952 -36.169  10.384  0.00  0.00    +0.000 A 
ATOM     10  C   UNL     1      -0.642 -35.914  10.289  0.00  0.00    +0.000 A 
ATOM     11  C   UNL     1       0.211 -36.769  10.859  0.00  0.00    +0.000 A 
ATOM     12  C   UNL     1      -0.275 -37.850  11.484  0.00  0.00    +0.000 A 
ATOM     13  C   UNL     1      -3.553 -40.082  10.465  0.00  0.00    +0.000 C 
ATOM     14  C   UNL     1      -3.986 -37.209  11.085  0.00  0.00    +0.000 C 
ATOM     15  C   UNL     1      -4.878 -39.494  10.841  0.00  0.00    +0.000 C 
ATOM     16  C   UNL     1      -4.826 -38.299  11.754  0.00  0.00    +0.000 C 
ATOM     17  C   UNL     1      -6.257 -37.854  11.963  0.00  0.00    +0.000 C 
ATOM     18  N   UNL     1      -7.287 -38.401  11.472  0.00  0.00    +0.000 NA
ATOM     19  N   UNL     1      -7.134 -39.385  10.746  0.00  0.00    +0.000 N 
ATOM     20  C   UNL     1      -6.055 -39.955  10.400  0.00  0.00    +0.000 C 
ATOM     21  H   UNL     1      -8.043 -39.765  10.385  0.00  0.00    +0.000 HD
ENDROOT
TORSDOF 0
ENDMDL
MODEL 7
REMARK VINA RESULT:      -8.4     10.227     12.360
REMARK  Name = Fragment
REMARK  0 active torsions:
REMARK  status: ('A' for Active; 'I' for Inactive)
REMARK                            x       y       z     vdW  Elec       q    Type
REMARK                         _______ _______ _______ _____ _____    ______ ____
ROOT
ATOM      1  C   UNL     1     -18.579 -42.413  26.605  0.00  0.00    +0.000 A 
ATOM      2  C   UNL     1     -19.284 -42.815  27.672  0.00  0.00    +0.000 A 
ATOM      3  C   UNL     1     -20.485 -43.374  27.497  0.00  0.00    +0.000 A 
ATOM      4  C   UNL     1     -20.942 -43.529  26.248  0.00  0.00    +0.000 A 
ATOM      5  C   UNL     1     -20.233 -43.125  25.175  0.00  0.00    +0.000 A 
ATOM      6  C   UNL     1     -19.026 -42.532  25.333  0.00  0.00    +0.000 A 
ATOM      7  C   UNL     1     -18.238 -42.091  24.320  0.00  0.00    +0.000 A 
ATOM      8  C   UNL     1     -18.603 -41.409  23.200  0.00  0.00    +0.000 A 
ATOM      9  C   UNL     1     -17.655 -41.118  22.282  0.00  0.00    +0.000 A 
ATOM     10  C   UNL     1     -16.368 -41.460  22.414  0.00  0.00    +0.000 A 
ATOM     11  C   UNL     1     -15.997 -42.107  23.521  0.00  0.00    +0.000 A 
ATOM     12  C   UNL     1     -16.924 -42.403  24.441  0.00  0.00    +0.000 A 
ATOM     13  C   UNL     1     -20.838 -43.434  23.825  0.00  0.00    +0.000 C 
ATOM     14  C   UNL     1     -19.950 -40.773  22.852  0.00  0.00    +0.000 C 
ATOM     15  C   UNL     1     -21.766 -42.298  23.520  0.00  0.00    +0.000 C 
ATOM     16  C   UNL     1     -21.199 -40.920  23.723  0.00  0.00    +0.000 C 
ATOM     17  C   UNL     1     -22.283 -39.945  23.319  0.00  0.00    +0.000 C 
ATOM     18  N   UNL     1     -23.440 -40.245  22.908  0.00  0.00    +0.000 NA
ATOM     19  N   UNL     1     -23.733 -41.439  22.812  0.00  0.00    +0.000 N 
ATOM     20  C   UNL     1     -23.018 -42.453  23.071  0.00  0.00    +0.000 C 
ATOM     21  H   UNL     1     -24.710 -41.587  22.461  0.00  0.00    +0.000 HD
ENDROOT
TORSDOF 0
ENDMDL
MODEL 8
REMARK VINA RESULT:      -8.1     10.194     12.747
REMARK  Name = Fragment
REMARK  0 active torsions:
REMARK  status: ('A' for Active; 'I' for Inactive)
REMARK                            x       y       z     vdW  Elec       q    Type
REMARK                         _______ _______ _______ _____ _____    ______ ____
ROOT
ATOM      1  C   UNL     1     -17.292 -42.132  23.870  0.00  0.00    +0.000 A 
ATOM      2  C   UNL     1     -16.689 -41.695  22.756  0.00  0.00    +0.000 A 
ATOM      3  C   UNL     1     -17.377 -40.955  21.881  0.00  0.00    +0.000 A 
ATOM      4  C   UNL     1     -18.653 -40.660  22.157  0.00  0.00    +0.000 A 
ATOM      5  C   UNL     1     -19.259 -41.099  23.278  0.00  0.00    +0.000 A 
ATOM      6  C   UNL     1     -18.587 -41.873  24.164  0.00  0.00    +0.000 A 
ATOM      7  C   UNL     1     -19.107 -42.363  25.318  0.00  0.00    +0.000 A 
ATOM      8  C   UNL     1     -20.333 -42.916  25.525  0.00  0.00    +0.000 A 
ATOM      9  C   UNL     1     -20.671 -43.288  26.779  0.00  0.00    +0.000 A 
ATOM     10  C   UNL     1     -19.862 -43.149  27.836  0.00  0.00    +0.000 A 
ATOM     11  C   UNL     1     -18.648 -42.631  27.637  0.00  0.00    +0.000 A 
ATOM     12  C   UNL     1     -18.297 -42.256  26.399  0.00  0.00    +0.000 A 
ATOM     13  C   UNL     1     -20.677 -40.624  23.496  0.00  0.00    +0.000 C 
ATOM     14  C   UNL     1     -21.395 -43.324  24.502  0.00  0.00    +0.000 C 
ATOM     15  C   UNL     1     -21.554 -41.590  22.759  0.00  0.00    +0.000 C 
ATOM     16  C   UNL     1     -21.268 -43.046  23.003  0.00  0.00    +0.000 C 
ATOM     17  C   UNL     1     -22.287 -43.825  22.200  0.00  0.00    +0.000 C 
ATOM     18  N   UNL     1     -23.186 -43.333  21.460  0.00  0.00    +0.000 NA
ATOM     19  N   UNL     1     -23.265 -42.106  21.376  0.00  0.00    +0.000 N 
ATOM     20  C   UNL     1     -22.551 -41.226  21.944  0.00  0.00    +0.000 C 
ATOM     21  H   UNL     1     -24.041 -41.794  20.743  0.00  0.00    +0.000 HD
ENDROOT
TORSDOF 0
ENDMDL
MODEL 9
REMARK VINA RESULT:      -8.1     19.693     21.766
REMARK  Name = Fragment
REMARK  0 active torsions:
REMARK  status: ('A' for Active; 'I' for Inactive)
REMARK                            x       y       z     vdW  Elec       q    Type
REMARK                         _______ _______ _______ _____ _____    ______ ____
ROOT
ATOM      1  C   UNL     1       0.658 -56.649  19.940  0.00  0.00    +0.000 A 
ATOM      2  C   UNL     1       0.142 -57.885  19.991  0.00  0.00    +0.000 A 
ATOM      3  C   UNL     1       0.962 -58.941  20.037  0.00  0.00    +0.000 A 
ATOM      4  C   UNL     1       2.283 -58.724  20.046  0.00  0.00    +0.000 A 
ATOM      5  C   UNL     1       2.801 -57.481  19.996  0.00  0.00    +0.000 A 
ATOM      6  C   UNL     1       1.988 -56.401  19.921  0.00  0.00    +0.000 A 
ATOM      7  C   UNL     1       2.412 -55.112  19.867  0.00  0.00    +0.000 A 
ATOM      8  C   UNL     1       3.436 -54.589  19.139  0.00  0.00    +0.000 A 
ATOM      9  C   UNL     1       3.726 -53.277  19.280  0.00  0.00    +0.000 A 
ATOM     10  C   UNL     1       3.056 -52.455  20.097  0.00  0.00    +0.000 A 
ATOM     11  C   UNL     1       2.034 -52.954  20.796  0.00  0.00    +0.000 A 
ATOM     12  C   UNL     1       1.733 -54.254  20.667  0.00  0.00    +0.000 A 
ATOM     13  C   UNL     1       4.306 -57.385  20.092  0.00  0.00    +0.000 C 
ATOM     14  C   UNL     1       4.271 -55.243  18.036  0.00  0.00    +0.000 C 
ATOM     15  C   UNL     1       4.821 -57.553  18.695  0.00  0.00    +0.000 C 
ATOM     16  C   UNL     1       4.141 -56.717  17.646  0.00  0.00    +0.000 C 
ATOM     17  C   UNL     1       4.841 -57.014  16.338  0.00  0.00    +0.000 C 
ATOM     18  N   UNL     1       5.799 -57.823  16.173  0.00  0.00    +0.000 NA
ATOM     19  N   UNL     1       6.224 -58.432  17.157  0.00  0.00    +0.000 N 
ATOM     20  C   UNL     1       5.831 -58.365  18.360  0.00  0.00    +0.000 C 
ATOM     21  H   UNL     1       7.018 -59.075  16.921  0.00  0.00    +0.000 HD
ENDROOT
TORSDOF 0
ENDMDL
MODEL 10
REMARK VINA RESULT:      -8.0     10.008     12.219
REMARK  Name = Fragment
REMARK  0 active torsions:
REMARK  status: ('A' for Active; 'I' for Inactive)
REMARK                            x       y       z     vdW  Elec       q    Type
REMARK                         _______ _______ _______ _____ _____    ______ ____
ROOT
ATOM      1  C   UNL     1     -20.614 -40.896  21.666  0.00  0.00    +0.000 A 
ATOM      2  C   UNL     1     -21.872 -40.504  21.418  0.00  0.00    +0.000 A 
ATOM      3  C   UNL     1     -22.703 -40.270  22.438  0.00  0.00    +0.000 A 
ATOM      4  C   UNL     1     -22.242 -40.422  23.686  0.00  0.00    +0.000 A 
ATOM      5  C   UNL     1     -20.977 -40.815  23.935  0.00  0.00    +0.000 A 
ATOM      6  C   UNL     1     -20.128 -41.084  22.915  0.00  0.00    +0.000 A 
ATOM      7  C   UNL     1     -18.839 -41.485  23.061  0.00  0.00    +0.000 A 
ATOM      8  C   UNL     1     -18.333 -42.400  23.933  0.00  0.00    +0.000 A 
ATOM      9  C   UNL     1     -16.998 -42.606  23.950  0.00  0.00    +0.000 A 
ATOM     10  C   UNL     1     -16.139 -41.962  23.150  0.00  0.00    +0.000 A 
ATOM     11  C   UNL     1     -16.630 -41.081  22.276  0.00  0.00    +0.000 A 
ATOM     12  C   UNL     1     -17.952 -40.865  22.245  0.00  0.00    +0.000 A 
ATOM     13  C   UNL     1     -20.573 -40.869  25.390  0.00  0.00    +0.000 C 
ATOM     14  C   UNL     1     -19.073 -43.375  24.850  0.00  0.00    +0.000 C 
ATOM     15  C   UNL     1     -20.990 -42.221  25.884  0.00  0.00    +0.000 C 
ATOM     16  C   UNL     1     -20.595 -43.383  25.015  0.00  0.00    +0.000 C 
ATOM     17  C   UNL     1     -21.075 -44.632  25.720  0.00  0.00    +0.000 C 
ATOM     18  N   UNL     1     -21.701 -44.673  26.819  0.00  0.00    +0.000 NA
ATOM     19  N   UNL     1     -21.945 -43.608  27.390  0.00  0.00    +0.000 N 
ATOM     20  C   UNL     1     -21.651 -42.430  27.029  0.00  0.00    +0.000 C 
ATOM     21  H   UNL     1     -22.463 -43.745  28.293  0.00  0.00    +0.000 HD
ENDROOT
TORSDOF 0
ENDMDL
