MODEL 1
REMARK VINA RESULT:     -10.1      0.000      0.000
REMARK  Name = Fragment
REMARK  4 active torsions:
REMARK  status: ('A' for Active; 'I' for Inactive)
REMARK    1  A    between atoms: C_17  and  C_21
REMARK    2  A    between atoms: C_20  and  C_22
REMARK    3  A    between atoms: C_25  and  O_31
REMARK    4  A    between atoms: C_28  and  O_34
REMARK                            x       y       z     vdW  Elec       q    Type
REMARK                         _______ _______ _______ _____ _____    ______ ____
ROOT
ATOM      1  C   UNL     1     -22.874 -40.648  26.439  0.00  0.00    +0.000 A 
ATOM      2  C   UNL     1     -23.474 -39.536  26.003  0.00  0.00    +0.000 A 
ATOM      3  C   UNL     1     -23.844 -39.502  24.652  0.00  0.00    +0.000 A 
ATOM      4  C   UNL     1     -23.105 -40.222  23.802  0.00  0.00    +0.000 A 
ATOM      5  C   UNL     1     -22.335 -41.214  24.259  0.00  0.00    +0.000 A 
ATOM      6  C   UNL     1     -22.305 -41.487  25.568  0.00  0.00    +0.000 A 
ATOM      7  C   UNL     1     -21.715 -42.605  26.003  0.00  0.00    +0.000 A 
ATOM      8  C   UNL     1     -20.785 -43.207  25.254  0.00  0.00    +0.000 A 
ATOM      9  C   UNL     1     -20.327 -44.415  25.599  0.00  0.00    +0.000 A 
ATOM     10  C   UNL     1     -20.799 -45.020  26.693  0.00  0.00    +0.000 A 
ATOM     11  C   UNL     1     -21.472 -44.245  27.621  0.00  0.00    +0.000 A 
ATOM     12  C   UNL     1     -22.062 -43.127  27.184  0.00  0.00    +0.000 A 
ATOM     13  C   UNL     1     -21.510 -41.991  23.281  0.00  0.00    +0.000 C 
ATOM     14  C   UNL     1     -20.227 -42.552  24.029  0.00  0.00    +0.000 C 
ATOM     15  C   UNL     1     -20.213 -41.282  23.049  0.00  0.00    +0.000 C 
ATOM     16  C   UNL     1     -19.192 -41.348  24.142  0.00  0.00    +0.000 C 
ATOM     17  C   UNL     1     -17.873 -41.768  23.570  0.00  0.00    +0.000 C 
ATOM     18  N   UNL     1     -17.672 -41.415  22.377  0.00  0.00    +0.000 NA
ATOM     19  N   UNL     1     -18.871 -40.019  21.749  0.00  0.00    +0.000 N 
ATOM     20  C   UNL     1     -19.979 -40.609  21.918  0.00  0.00    +0.000 C 
ATOM     35  H   UNL     1     -18.663 -39.058  21.379  0.00  0.00    +0.000 HD
ENDROOT
BRANCH  17  21
ATOM     21  C   UNL     1     -16.977 -42.467  24.273  0.00  0.00    +0.000 A 
ATOM     23  C   UNL     1     -17.021 -42.456  25.667  0.00  0.00    +0.000 A 
ATOM     24  C   UNL     1     -16.084 -43.185  26.400  0.00  0.00    +0.000 A 
ATOM     25  C   UNL     1     -15.105 -43.926  25.739  0.00  0.00    +0.000 A 
ATOM     29  C   UNL     1     -15.061 -43.936  24.344  0.00  0.00    +0.000 A 
ATOM     30  C   UNL     1     -15.997 -43.208  23.612  0.00  0.00    +0.000 A 
BRANCH  25  31
ATOM     31  O   UNL     1     -14.195 -44.633  26.451  0.00  0.00    +0.000 OA
ATOM     36  H   UNL     1     -14.494 -44.663  27.376  0.00  0.00    +0.000 HD
ENDBRANCH  25  31
ENDBRANCH  17  21
BRANCH  20  22
ATOM     22  C   UNL     1     -20.915 -40.558  20.965  0.00  0.00    +0.000 A 
ATOM     26  C   UNL     1     -21.611 -39.372  20.733  0.00  0.00    +0.000 A 
ATOM     27  C   UNL     1     -22.588 -39.319  19.739  0.00  0.00    +0.000 A 
ATOM     28  C   UNL     1     -22.869 -40.453  18.976  0.00  0.00    +0.000 A 
ATOM     32  C   UNL     1     -22.173 -41.639  19.208  0.00  0.00    +0.000 A 
ATOM     33  C   UNL     1     -21.196 -41.692  20.202  0.00  0.00    +0.000 A 
BRANCH  28  34
ATOM     34  O   UNL     1     -23.818 -40.401  18.010  0.00  0.00    +0.000 OA
ATOM     37  H   UNL     1     -23.482 -39.843  17.290  0.00  0.00    +0.000 HD
ENDBRANCH  28  34
ENDBRANCH  20  22
TORSDOF 4
ENDMDL
MODEL 2
REMARK VINA RESULT:     -10.1      2.880      5.468
REMARK  Name = Fragment
REMARK  4 active torsions:
REMARK  status: ('A' for Active; 'I' for Inactive)
REMARK    1  A    between atoms: C_17  and  C_21
REMARK    2  A    between atoms: C_20  and  C_22
REMARK    3  A    between atoms: C_25  and  O_31
REMARK    4  A    between atoms: C_28  and  O_34
REMARK                            x       y       z     vdW  Elec       q    Type
REMARK                         _______ _______ _______ _____ _____    ______ ____
ROOT
ATOM      1  C   UNL     1     -23.472 -42.293  21.496  0.00  0.00    +0.000 A 
ATOM      2  C   UNL     1     -24.660 -42.751  21.905  0.00  0.00    +0.000 A 
ATOM      3  C   UNL     1     -25.260 -42.086  22.982  0.00  0.00    +0.000 A 
ATOM      4  C   UNL     1     -24.444 -41.506  23.868  0.00  0.00    +0.000 A 
ATOM      5  C   UNL     1     -23.180 -41.229  23.532  0.00  0.00    +0.000 A 
ATOM      6  C   UNL     1     -22.732 -41.533  22.309  0.00  0.00    +0.000 A 
ATOM      7  C   UNL     1     -21.549 -41.066  21.896  0.00  0.00    +0.000 A 
ATOM      8  C   UNL     1     -20.623 -40.705  22.790  0.00  0.00    +0.000 A 
ATOM      9  C   UNL     1     -19.516 -40.071  22.388  0.00  0.00    +0.000 A 
ATOM     10  C   UNL     1     -19.337 -39.799  21.091  0.00  0.00    +0.000 A 
ATOM     11  C   UNL     1     -20.114 -40.484  20.174  0.00  0.00    +0.000 A 
ATOM     12  C   UNL     1     -21.297 -40.950  20.588  0.00  0.00    +0.000 A 
ATOM     13  C   UNL     1     -22.289 -40.591  24.552  0.00  0.00    +0.000 C 
ATOM     14  C   UNL     1     -20.787 -41.005  24.247  0.00  0.00    +0.000 C 
ATOM     15  C   UNL     1     -21.679 -41.652  25.414  0.00  0.00    +0.000 C 
ATOM     16  C   UNL     1     -20.589 -42.481  24.809  0.00  0.00    +0.000 C 
ATOM     17  C   UNL     1     -19.411 -42.509  25.733  0.00  0.00    +0.000 C 
ATOM     18  N   UNL     1     -19.690 -42.418  26.958  0.00  0.00    +0.000 NA
ATOM     19  N   UNL     1     -21.559 -42.762  27.373  0.00  0.00    +0.000 N 
ATOM     20  C   UNL     1     -22.096 -41.858  26.667  0.00  0.00    +0.000 C 
ATOM     35  H   UNL     1     -21.996 -43.485  27.997  0.00  0.00    +0.000 HD
ENDROOT
BRANCH  17  21
ATOM     21  C   UNL     1     -18.154 -42.621  25.289  0.00  0.00    +0.000 A 
ATOM     23  C   UNL     1     -17.088 -42.526  26.183  0.00  0.00    +0.000 A 
ATOM     24  C   UNL     1     -15.777 -42.642  25.718  0.00  0.00    +0.000 A 
ATOM     25  C   UNL     1     -15.534 -42.854  24.362  0.00  0.00    +0.000 A 
ATOM     29  C   UNL     1     -16.601 -42.948  23.468  0.00  0.00    +0.000 A 
ATOM     30  C   UNL     1     -17.911 -42.832  23.932  0.00  0.00    +0.000 A 
BRANCH  25  31
ATOM     31  O   UNL     1     -14.262 -42.965  23.911  0.00  0.00    +0.000 OA
ATOM     36  H   UNL     1     -14.221 -42.572  23.023  0.00  0.00    +0.000 HD
ENDBRANCH  25  31
ENDBRANCH  17  21
BRANCH  20  22
ATOM     22  C   UNL     1     -23.079 -41.109  27.175  0.00  0.00    +0.000 A 
ATOM     26  C   UNL     1     -24.332 -41.672  27.416  0.00  0.00    +0.000 A 
ATOM     27  C   UNL     1     -25.359 -40.891  27.945  0.00  0.00    +0.000 A 
ATOM     28  C   UNL     1     -25.132 -39.545  28.236  0.00  0.00    +0.000 A 
ATOM     32  C   UNL     1     -23.879 -38.982  27.996  0.00  0.00    +0.000 A 
ATOM     33  C   UNL     1     -22.853 -39.763  27.466  0.00  0.00    +0.000 A 
BRANCH  28  34
ATOM     34  O   UNL     1     -26.130 -38.787  28.751  0.00  0.00    +0.000 OA
ATOM     37  H   UNL     1     -26.808 -39.385  29.107  0.00  0.00    +0.000 HD
ENDBRANCH  28  34
ENDBRANCH  20  22
TORSDOF 4
ENDMDL
MODEL 3
REMARK VINA RESULT:      -9.9      2.791      5.411
REMARK  Name = Fragment
REMARK  4 active torsions:
REMARK  status: ('A' for Active; 'I' for Inactive)
REMARK    1  A    between atoms: C_17  and  C_21
REMARK    2  A    between atoms: C_20  and  C_22
REMARK    3  A    between atoms: C_25  and  O_31
REMARK    4  A    between atoms: C_28  and  O_34
REMARK                            x       y       z     vdW  Elec       q    Type
REMARK                         _______ _______ _______ _____ _____    ______ ____
ROOT
ATOM      1  C   UNL     1     -16.354 -43.188  24.459  0.00  0.00    +0.000 A 
ATOM      2  C   UNL     1     -15.949 -43.282  23.188  0.00  0.00    +0.000 A 
ATOM      3  C   UNL     1     -16.420 -42.309  22.298  0.00  0.00    +0.000 A 
ATOM      4  C   UNL     1     -17.614 -41.770  22.564  0.00  0.00    +0.000 A 
ATOM      5  C   UNL     1     -18.125 -41.852  23.796  0.00  0.00    +0.000 A 
ATOM      6  C   UNL     1     -17.442 -42.474  24.763  0.00  0.00    +0.000 A 
ATOM      7  C   UNL     1     -17.840 -42.370  26.035  0.00  0.00    +0.000 A 
ATOM      8  C   UNL     1     -19.111 -42.064  26.316  0.00  0.00    +0.000 A 
ATOM      9  C   UNL     1     -19.469 -41.782  27.573  0.00  0.00    +0.000 A 
ATOM     10  C   UNL     1     -18.556 -41.807  28.548  0.00  0.00    +0.000 A 
ATOM     11  C   UNL     1     -17.363 -42.461  28.299  0.00  0.00    +0.000 A 
ATOM     12  C   UNL     1     -16.965 -42.564  27.027  0.00  0.00    +0.000 A 
ATOM     13  C   UNL     1     -19.470 -41.248  24.057  0.00  0.00    +0.000 C 
ATOM     14  C   UNL     1     -20.161 -42.038  25.249  0.00  0.00    +0.000 C 
ATOM     15  C   UNL     1     -20.537 -42.236  23.702  0.00  0.00    +0.000 C 
ATOM     16  C   UNL     1     -20.742 -43.388  24.637  0.00  0.00    +0.000 C 
ATOM     17  C   UNL     1     -22.196 -43.504  24.975  0.00  0.00    +0.000 C 
ATOM     18  N   UNL     1     -22.987 -43.123  24.072  0.00  0.00    +0.000 NA
ATOM     19  N   UNL     1     -22.165 -42.954  22.317  0.00  0.00    +0.000 N 
ATOM     20  C   UNL     1     -21.269 -42.103  22.591  0.00  0.00    +0.000 C 
ATOM     35  H   UNL     1     -22.396 -43.429  21.409  0.00  0.00    +0.000 HD
ENDROOT
BRANCH  17  21
ATOM     21  C   UNL     1     -22.622 -43.976  26.151  0.00  0.00    +0.000 A 
ATOM     23  C   UNL     1     -23.969 -43.873  26.498  0.00  0.00    +0.000 A 
ATOM     24  C   UNL     1     -24.412 -44.365  27.726  0.00  0.00    +0.000 A 
ATOM     25  C   UNL     1     -23.510 -44.961  28.606  0.00  0.00    +0.000 A 
ATOM     29  C   UNL     1     -22.162 -45.064  28.258  0.00  0.00    +0.000 A 
ATOM     30  C   UNL     1     -21.719 -44.572  27.032  0.00  0.00    +0.000 A 
BRANCH  25  31
ATOM     31  O   UNL     1     -23.941 -45.438  29.797  0.00  0.00    +0.000 OA
ATOM     36  H   UNL     1     -23.189 -45.428  30.415  0.00  0.00    +0.000 HD
ENDBRANCH  25  31
ENDBRANCH  17  21
BRANCH  20  22
ATOM     22  C   UNL     1     -21.055 -41.070  21.770  0.00  0.00    +0.000 A 
ATOM     26  C   UNL     1     -20.452 -41.279  20.529  0.00  0.00    +0.000 A 
ATOM     27  C   UNL     1     -20.227 -40.202  19.672  0.00  0.00    +0.000 A 
ATOM     28  C   UNL     1     -20.607 -38.915  20.055  0.00  0.00    +0.000 A 
ATOM     32  C   UNL     1     -21.210 -38.706  21.296  0.00  0.00    +0.000 A 
ATOM     33  C   UNL     1     -21.434 -39.784  22.152  0.00  0.00    +0.000 A 
BRANCH  28  34
ATOM     34  O   UNL     1     -20.389 -37.869  19.223  0.00  0.00    +0.000 OA
ATOM     37  H   UNL     1     -20.378 -37.057  19.757  0.00  0.00    +0.000 HD
ENDBRANCH  28  34
ENDBRANCH  20  22
TORSDOF 4
ENDMDL
MODEL 4
REMARK VINA RESULT:      -9.5      3.031      5.279
REMARK  Name = Fragment
REMARK  4 active torsions:
REMARK  status: ('A' for Active; 'I' for Inactive)
REMARK    1  A    between atoms: C_17  and  C_21
REMARK    2  A    between atoms: C_20  and  C_22
REMARK    3  A    between atoms: C_25  and  O_31
REMARK    4  A    between atoms: C_28  and  O_34
REMARK                            x       y       z     vdW  Elec       q    Type
REMARK                         _______ _______ _______ _____ _____    ______ ____
ROOT
ATOM      1  C   UNL     1     -17.310 -42.047  23.666  0.00  0.00    +0.000 A 
ATOM      2  C   UNL     1     -16.760 -41.694  22.500  0.00  0.00    +0.000 A 
ATOM      3  C   UNL     1     -17.359 -40.631  21.811  0.00  0.00    +0.000 A 
ATOM      4  C   UNL     1     -18.671 -40.451  21.995  0.00  0.00    +0.000 A 
ATOM      5  C   UNL     1     -19.276 -40.982  23.063  0.00  0.00    +0.000 A 
ATOM      6  C   UNL     1     -18.567 -41.692  23.948  0.00  0.00    +0.000 A 
ATOM      7  C   UNL     1     -19.114 -42.036  25.118  0.00  0.00    +0.000 A 
ATOM      8  C   UNL     1     -20.444 -42.094  25.246  0.00  0.00    +0.000 A 
ATOM      9  C   UNL     1     -20.993 -42.258  26.453  0.00  0.00    +0.000 A 
ATOM     10  C   UNL     1     -20.213 -42.364  27.533  0.00  0.00    +0.000 A 
ATOM     11  C   UNL     1     -18.875 -42.656  27.337  0.00  0.00    +0.000 A 
ATOM     12  C   UNL     1     -18.329 -42.311  26.166  0.00  0.00    +0.000 A 
ATOM     13  C   UNL     1     -20.748 -40.772  23.232  0.00  0.00    +0.000 C 
ATOM     14  C   UNL     1     -21.345 -41.991  24.055  0.00  0.00    +0.000 C 
ATOM     15  C   UNL     1     -21.492 -41.821  22.466  0.00  0.00    +0.000 C 
ATOM     16  C   UNL     1     -21.504 -43.205  23.038  0.00  0.00    +0.000 C 
ATOM     17  C   UNL     1     -22.911 -43.715  23.084  0.00  0.00    +0.000 C 
ATOM     18  N   UNL     1     -23.670 -43.270  22.182  0.00  0.00    +0.000 NA
ATOM     19  N   UNL     1     -22.732 -42.447  20.690  0.00  0.00    +0.000 N 
ATOM     20  C   UNL     1     -22.110 -41.539  21.315  0.00  0.00    +0.000 C 
ATOM     35  H   UNL     1     -22.738 -42.686  19.667  0.00  0.00    +0.000 HD
ENDROOT
BRANCH  17  21
ATOM     21  C   UNL     1     -23.331 -44.577  24.016  0.00  0.00    +0.000 A 
ATOM     23  C   UNL     1     -22.965 -45.920  23.940  0.00  0.00    +0.000 A 
ATOM     24  C   UNL     1     -23.405 -46.818  24.913  0.00  0.00    +0.000 A 
ATOM     25  C   UNL     1     -24.210 -46.373  25.961  0.00  0.00    +0.000 A 
ATOM     29  C   UNL     1     -24.576 -45.029  26.036  0.00  0.00    +0.000 A 
ATOM     30  C   UNL     1     -24.137 -44.131  25.064  0.00  0.00    +0.000 A 
BRANCH  25  31
ATOM     31  O   UNL     1     -24.637 -47.245  26.905  0.00  0.00    +0.000 OA
ATOM     36  H   UNL     1     -25.587 -47.094  27.046  0.00  0.00    +0.000 HD
ENDBRANCH  25  31
ENDBRANCH  17  21
BRANCH  20  22
ATOM     22  C   UNL     1     -22.071 -40.296  20.824  0.00  0.00    +0.000 A 
ATOM     26  C   UNL     1     -22.937 -39.322  21.321  0.00  0.00    +0.000 A 
ATOM     27  C   UNL     1     -22.898 -38.026  20.808  0.00  0.00    +0.000 A 
ATOM     28  C   UNL     1     -21.991 -37.703  19.798  0.00  0.00    +0.000 A 
ATOM     32  C   UNL     1     -21.124 -38.677  19.301  0.00  0.00    +0.000 A 
ATOM     33  C   UNL     1     -21.164 -39.973  19.814  0.00  0.00    +0.000 A 
BRANCH  28  34
ATOM     34  O   UNL     1     -21.952 -36.443  19.300  0.00  0.00    +0.000 OA
ATOM     37  H   UNL     1     -22.208 -35.832  20.011  0.00  0.00    +0.000 HD
ENDBRANCH  28  34
ENDBRANCH  20  22
TORSDOF 4
ENDMDL
MODEL 5
REMARK VINA RESULT:      -9.0     19.158     21.500
REMARK  Name = Fragment
REMARK  4 active torsions:
REMARK  status: ('A' for Active; 'I' for Inactive)
REMARK    1  A    between atoms: C_17  and  C_21
REMARK    2  A    between atoms: C_20  and  C_22
REMARK    3  A    between atoms: C_25  and  O_31
REMARK    4  A    between atoms: C_28  and  O_34
REMARK                            x       y       z     vdW  Elec       q    Type
REMARK                         _______ _______ _______ _____ _____    ______ ____
ROOT
ATOM      1  C   UNL     1      -6.800 -33.976  13.055  0.00  0.00    +0.000 A 
ATOM      2  C   UNL     1      -6.463 -32.682  13.021  0.00  0.00    +0.000 A 
ATOM      3  C   UNL     1      -6.000 -32.178  11.799  0.00  0.00    +0.000 A 
ATOM      4  C   UNL     1      -5.377 -33.037  10.986  0.00  0.00    +0.000 A 
ATOM      5  C   UNL     1      -5.547 -34.353  11.144  0.00  0.00    +0.000 A 
ATOM      6  C   UNL     1      -6.343 -34.811  12.117  0.00  0.00    +0.000 A 
ATOM      7  C   UNL     1      -6.689 -36.102  12.144  0.00  0.00    +0.000 A 
ATOM      8  C   UNL     1      -5.928 -37.013  11.527  0.00  0.00    +0.000 A 
ATOM      9  C   UNL     1      -6.363 -38.270  11.397  0.00  0.00    +0.000 A 
ATOM     10  C   UNL     1      -7.558 -38.617  11.884  0.00  0.00    +0.000 A 
ATOM     11  C   UNL     1      -8.149 -37.773  12.807  0.00  0.00    +0.000 A 
ATOM     12  C   UNL     1      -7.802 -36.482  12.780  0.00  0.00    +0.000 A 
ATOM     13  C   UNL     1      -4.824 -35.286  10.224  0.00  0.00    +0.000 C 
ATOM     14  C   UNL     1      -4.579 -36.660  10.981  0.00  0.00    +0.000 C 
ATOM     15  C   UNL     1      -3.449 -35.544  10.755  0.00  0.00    +0.000 C 
ATOM     16  C   UNL     1      -3.334 -36.442  11.947  0.00  0.00    +0.000 C 
ATOM     17  C   UNL     1      -2.304 -37.497  11.681  0.00  0.00    +0.000 C 
ATOM     18  N   UNL     1      -1.369 -37.148  10.912  0.00  0.00    +0.000 NA
ATOM     19  N   UNL     1      -1.219 -35.225  10.667  0.00  0.00    +0.000 N 
ATOM     20  C   UNL     1      -2.370 -34.987  10.196  0.00  0.00    +0.000 C 
ATOM     35  H   UNL     1      -0.419 -34.574  10.867  0.00  0.00    +0.000 HD
ENDROOT
BRANCH  17  21
ATOM     21  C   UNL     1      -2.375 -38.719  12.219  0.00  0.00    +0.000 A 
ATOM     23  C   UNL     1      -1.956 -38.929  13.532  0.00  0.00    +0.000 A 
ATOM     24  C   UNL     1      -2.029 -40.205  14.091  0.00  0.00    +0.000 A 
ATOM     25  C   UNL     1      -2.522 -41.270  13.337  0.00  0.00    +0.000 A 
ATOM     29  C   UNL     1      -2.941 -41.059  12.023  0.00  0.00    +0.000 A 
ATOM     30  C   UNL     1      -2.868 -39.784  11.464  0.00  0.00    +0.000 A 
BRANCH  25  31
ATOM     31  O   UNL     1      -2.593 -42.509  13.881  0.00  0.00    +0.000 OA
ATOM     36  H   UNL     1      -2.301 -43.149  13.209  0.00  0.00    +0.000 HD
ENDBRANCH  25  31
ENDBRANCH  17  21
BRANCH  20  22
ATOM     22  C   UNL     1      -2.506 -34.180   9.139  0.00  0.00    +0.000 A 
ATOM     26  C   UNL     1      -2.331 -32.804   9.285  0.00  0.00    +0.000 A 
ATOM     27  C   UNL     1      -2.474 -31.962   8.183  0.00  0.00    +0.000 A 
ATOM     28  C   UNL     1      -2.791 -32.496   6.934  0.00  0.00    +0.000 A 
ATOM     32  C   UNL     1      -2.966 -33.871   6.788  0.00  0.00    +0.000 A 
ATOM     33  C   UNL     1      -2.823 -34.714   7.890  0.00  0.00    +0.000 A 
BRANCH  28  34
ATOM     34  O   UNL     1      -2.929 -31.677   5.863  0.00  0.00    +0.000 OA
ATOM     37  H   UNL     1      -2.361 -30.901   6.004  0.00  0.00    +0.000 HD
ENDBRANCH  28  34
ENDBRANCH  20  22
TORSDOF 4
ENDMDL
MODEL 6
REMARK VINA RESULT:      -8.9     17.761     20.970
REMARK  Name = Fragment
REMARK  4 active torsions:
REMARK  status: ('A' for Active; 'I' for Inactive)
REMARK    1  A    between atoms: C_17  and  C_21
REMARK    2  A    between atoms: C_20  and  C_22
REMARK    3  A    between atoms: C_25  and  O_31
REMARK    4  A    between atoms: C_28  and  O_34
REMARK                            x       y       z     vdW  Elec       q    Type
REMARK                         _______ _______ _______ _____ _____    ______ ____
ROOT
ATOM      1  C   UNL     1      -7.122 -38.517  10.662  0.00  0.00    +0.000 A 
ATOM      2  C   UNL     1      -6.408 -39.397   9.953  0.00  0.00    +0.000 A 
ATOM      3  C   UNL     1      -5.307 -39.984  10.592  0.00  0.00    +0.000 A 
ATOM      4  C   UNL     1      -4.699 -39.261  11.538  0.00  0.00    +0.000 A 
ATOM      5  C   UNL     1      -5.338 -38.238  12.113  0.00  0.00    +0.000 A 
ATOM      6  C   UNL     1      -6.588 -37.937  11.742  0.00  0.00    +0.000 A 
ATOM      7  C   UNL     1      -7.305 -37.065  12.457  0.00  0.00    +0.000 A 
ATOM      8  C   UNL     1      -6.689 -36.167  13.233  0.00  0.00    +0.000 A 
ATOM      9  C   UNL     1      -7.398 -35.419  14.084  0.00  0.00    +0.000 A 
ATOM     10  C   UNL     1      -8.724 -35.569  14.159  0.00  0.00    +0.000 A 
ATOM     11  C   UNL     1      -9.360 -36.226  13.121  0.00  0.00    +0.000 A 
ATOM     12  C   UNL     1      -8.641 -37.098  12.405  0.00  0.00    +0.000 A 
ATOM     13  C   UNL     1      -4.623 -37.442  13.160  0.00  0.00    +0.000 C 
ATOM     14  C   UNL     1      -5.207 -35.966  13.164  0.00  0.00    +0.000 C 
ATOM     15  C   UNL     1      -3.804 -36.376  12.503  0.00  0.00    +0.000 C 
ATOM     16  C   UNL     1      -4.538 -35.198  11.941  0.00  0.00    +0.000 C 
ATOM     17  C   UNL     1      -3.904 -33.933  12.431  0.00  0.00    +0.000 C 
ATOM     18  N   UNL     1      -2.666 -34.008  12.654  0.00  0.00    +0.000 NA
ATOM     19  N   UNL     1      -1.807 -35.557  11.849  0.00  0.00    +0.000 N 
ATOM     20  C   UNL     1      -2.474 -36.476  12.410  0.00  0.00    +0.000 C 
ATOM     35  H   UNL     1      -1.022 -35.616  11.154  0.00  0.00    +0.000 HD
ENDROOT
BRANCH  17  21
ATOM     21  C   UNL     1      -4.601 -32.808  12.621  0.00  0.00    +0.000 A 
ATOM     23  C   UNL     1      -5.821 -32.626  11.971  0.00  0.00    +0.000 A 
ATOM     24  C   UNL     1      -6.547 -31.451  12.169  0.00  0.00    +0.000 A 
ATOM     25  C   UNL     1      -6.053 -30.460  13.017  0.00  0.00    +0.000 A 
ATOM     29  C   UNL     1      -4.832 -30.643  13.666  0.00  0.00    +0.000 A 
ATOM     30  C   UNL     1      -4.106 -31.817  13.468  0.00  0.00    +0.000 A 
BRANCH  25  31
ATOM     31  O   UNL     1      -6.758 -29.320  13.208  0.00  0.00    +0.000 OA
ATOM     36  H   UNL     1      -7.678 -29.564  13.408  0.00  0.00    +0.000 HD
ENDBRANCH  25  31
ENDBRANCH  17  21
BRANCH  20  22
ATOM     22  C   UNL     1      -1.848 -37.546  12.911  0.00  0.00    +0.000 A 
ATOM     26  C   UNL     1      -0.969 -38.277  12.113  0.00  0.00    +0.000 A 
ATOM     27  C   UNL     1      -0.317 -39.393  12.635  0.00  0.00    +0.000 A 
ATOM     28  C   UNL     1      -0.542 -39.778  13.957  0.00  0.00    +0.000 A 
ATOM     32  C   UNL     1      -1.421 -39.047  14.755  0.00  0.00    +0.000 A 
ATOM     33  C   UNL     1      -2.074 -37.931  14.233  0.00  0.00    +0.000 A 
BRANCH  28  34
ATOM     34  O   UNL     1       0.092 -40.863  14.464  0.00  0.00    +0.000 OA
ATOM     37  H   UNL     1       0.879 -41.032  13.918  0.00  0.00    +0.000 HD
ENDBRANCH  28  34
ENDBRANCH  20  22
TORSDOF 4
ENDMDL
MODEL 7
REMARK VINA RESULT:      -8.7     26.289     30.920
REMARK  Name = Fragment
REMARK  4 active torsions:
REMARK  status: ('A' for Active; 'I' for Inactive)
REMARK    1  A    between atoms: C_17  and  C_21
REMARK    2  A    between atoms: C_20  and  C_22
REMARK    3  A    between atoms: C_25  and  O_31
REMARK    4  A    between atoms: C_28  and  O_34
REMARK                            x       y       z     vdW  Elec       q    Type
REMARK                         _______ _______ _______ _____ _____    ______ ____
ROOT
ATOM      1  C   UNL     1       4.984 -58.443   8.250  0.00  0.00    +0.000 A 
ATOM      2  C   UNL     1       6.136 -57.773   8.360  0.00  0.00    +0.000 A 
ATOM      3  C   UNL     1       6.570 -57.464   9.655  0.00  0.00    +0.000 A 
ATOM      4  C   UNL     1       5.626 -57.297  10.587  0.00  0.00    +0.000 A 
ATOM      5  C   UNL     1       4.399 -57.790  10.393  0.00  0.00    +0.000 A 
ATOM      6  C   UNL     1       4.116 -58.451   9.266  0.00  0.00    +0.000 A 
ATOM      7  C   UNL     1       2.969 -59.130   9.160  0.00  0.00    +0.000 A 
ATOM      8  C   UNL     1       1.925 -58.806   9.932  0.00  0.00    +0.000 A 
ATOM      9  C   UNL     1       0.845 -59.592   9.959  0.00  0.00    +0.000 A 
ATOM     10  C   UNL     1       0.807 -60.702   9.215  0.00  0.00    +0.000 A 
ATOM     11  C   UNL     1       1.721 -60.819   8.183  0.00  0.00    +0.000 A 
ATOM     12  C   UNL     1       2.868 -60.140   8.290  0.00  0.00    +0.000 A 
ATOM     13  C   UNL     1       3.363 -57.574  11.452  0.00  0.00    +0.000 C 
ATOM     14  C   UNL     1       1.930 -57.564  10.768  0.00  0.00    +0.000 C 
ATOM     15  C   UNL     1       2.708 -56.244  11.243  0.00  0.00    +0.000 C 
ATOM     16  C   UNL     1       1.740 -56.129  10.107  0.00  0.00    +0.000 C 
ATOM     17  C   UNL     1       0.464 -55.519  10.597  0.00  0.00    +0.000 C 
ATOM     18  N   UNL     1       0.591 -54.712  11.557  0.00  0.00    +0.000 NA
ATOM     19  N   UNL     1       2.412 -54.088  11.832  0.00  0.00    +0.000 N 
ATOM     20  C   UNL     1       2.983 -55.200  12.031  0.00  0.00    +0.000 C 
ATOM     35  H   UNL     1       2.807 -53.114  11.818  0.00  0.00    +0.000 HD
ENDROOT
BRANCH  17  21
ATOM     21  C   UNL     1      -0.724 -55.810  10.056  0.00  0.00    +0.000 A 
ATOM     23  C   UNL     1      -0.790 -56.413   8.801  0.00  0.00    +0.000 A 
ATOM     24  C   UNL     1      -2.030 -56.715   8.237  0.00  0.00    +0.000 A 
ATOM     25  C   UNL     1      -3.203 -56.415   8.929  0.00  0.00    +0.000 A 
ATOM     29  C   UNL     1      -3.136 -55.811  10.185  0.00  0.00    +0.000 A 
ATOM     30  C   UNL     1      -1.897 -55.508  10.748  0.00  0.00    +0.000 A 
BRANCH  25  31
ATOM     31  O   UNL     1      -4.406 -56.709   8.381  0.00  0.00    +0.000 OA
ATOM     36  H   UNL     1      -5.098 -56.355   8.967  0.00  0.00    +0.000 HD
ENDBRANCH  25  31
ENDBRANCH  17  21
BRANCH  20  22
ATOM     22  C   UNL     1       3.861 -55.331  13.031  0.00  0.00    +0.000 A 
ATOM     26  C   UNL     1       5.195 -54.975  12.839  0.00  0.00    +0.000 A 
ATOM     27  C   UNL     1       6.111 -55.112  13.882  0.00  0.00    +0.000 A 
ATOM     28  C   UNL     1       5.692 -55.604  15.118  0.00  0.00    +0.000 A 
ATOM     32  C   UNL     1       4.357 -55.960  15.311  0.00  0.00    +0.000 A 
ATOM     33  C   UNL     1       3.442 -55.823  14.268  0.00  0.00    +0.000 A 
BRANCH  28  34
ATOM     34  O   UNL     1       6.582 -55.736  16.131  0.00  0.00    +0.000 OA
ATOM     37  H   UNL     1       6.115 -55.560  16.965  0.00  0.00    +0.000 HD
ENDBRANCH  28  34
ENDBRANCH  20  22
TORSDOF 4
ENDMDL
MODEL 8
REMARK VINA RESULT:      -8.6     25.778     30.061
REMARK  Name = Fragment
REMARK  4 active torsions:
REMARK  status: ('A' for Active; 'I' for Inactive)
REMARK    1  A    between atoms: C_17  and  C_21
REMARK    2  A    between atoms: C_20  and  C_22
REMARK    3  A    between atoms: C_25  and  O_31
REMARK    4  A    between atoms: C_28  and  O_34
REMARK                            x       y       z     vdW  Elec       q    Type
REMARK                         _______ _______ _______ _____ _____    ______ ____
ROOT
ATOM      1  C   UNL     1       0.897 -58.480  14.781  0.00  0.00    +0.000 A 
ATOM      2  C   UNL     1      -0.106 -58.731  15.630  0.00  0.00    +0.000 A 
ATOM      3  C   UNL     1      -0.304 -57.811  16.668  0.00  0.00    +0.000 A 
ATOM      4  C   UNL     1       0.771 -57.148  17.106  0.00  0.00    +0.000 A 
ATOM      5  C   UNL     1       1.864 -57.066  16.340  0.00  0.00    +0.000 A 
ATOM      6  C   UNL     1       1.881 -57.648  15.136  0.00  0.00    +0.000 A 
ATOM      7  C   UNL     1       2.878 -57.388  14.284  0.00  0.00    +0.000 A 
ATOM      8  C   UNL     1       4.054 -56.948  14.742  0.00  0.00    +0.000 A 
ATOM      9  C   UNL     1       4.986 -56.517  13.887  0.00  0.00    +0.000 A 
ATOM     10  C   UNL     1       4.742 -56.525  12.573  0.00  0.00    +0.000 A 
ATOM     11  C   UNL     1       3.691 -57.300  12.117  0.00  0.00    +0.000 A 
ATOM     12  C   UNL     1       2.694 -57.560  12.970  0.00  0.00    +0.000 A 
ATOM     13  C   UNL     1       3.055 -56.327  16.866  0.00  0.00    +0.000 C 
ATOM     14  C   UNL     1       4.364 -56.936  16.207  0.00  0.00    +0.000 C 
ATOM     15  C   UNL     1       3.883 -57.250  17.705  0.00  0.00    +0.000 C 
ATOM     16  C   UNL     1       4.694 -58.284  16.987  0.00  0.00    +0.000 C 
ATOM     17  C   UNL     1       6.108 -58.242  17.480  0.00  0.00    +0.000 C 
ATOM     18  N   UNL     1       6.244 -57.883  18.681  0.00  0.00    +0.000 NA
ATOM     19  N   UNL     1       4.603 -57.956  19.722  0.00  0.00    +0.000 N 
ATOM     20  C   UNL     1       3.891 -57.162  19.038  0.00  0.00    +0.000 C 
ATOM     35  H   UNL     1       4.373 -58.495  20.593  0.00  0.00    +0.000 HD
ENDROOT
BRANCH  17  21
ATOM     21  C   UNL     1       7.148 -58.559  16.703  0.00  0.00    +0.000 A 
ATOM     23  C   UNL     1       8.442 -58.217  17.095  0.00  0.00    +0.000 A 
ATOM     24  C   UNL     1       9.526 -58.548  16.282  0.00  0.00    +0.000 A 
ATOM     25  C   UNL     1       9.317 -59.223  15.079  0.00  0.00    +0.000 A 
ATOM     29  C   UNL     1       8.022 -59.564  14.688  0.00  0.00    +0.000 A 
ATOM     30  C   UNL     1       6.938 -59.233  15.500  0.00  0.00    +0.000 A 
BRANCH  25  31
ATOM     31  O   UNL     1      10.370 -59.544  14.291  0.00  0.00    +0.000 OA
ATOM     36  H   UNL     1      10.867 -58.728  14.105  0.00  0.00    +0.000 HD
ENDBRANCH  25  31
ENDBRANCH  17  21
BRANCH  20  22
ATOM     22  C   UNL     1       3.147 -56.236  19.652  0.00  0.00    +0.000 A 
ATOM     26  C   UNL     1       2.047 -56.620  20.419  0.00  0.00    +0.000 A 
ATOM     27  C   UNL     1       1.270 -55.654  21.057  0.00  0.00    +0.000 A 
ATOM     28  C   UNL     1       1.594 -54.303  20.930  0.00  0.00    +0.000 A 
ATOM     32  C   UNL     1       2.693 -53.919  20.163  0.00  0.00    +0.000 A 
ATOM     33  C   UNL     1       3.470 -54.885  19.524  0.00  0.00    +0.000 A 
BRANCH  28  34
ATOM     34  O   UNL     1       0.839 -53.365  21.551  0.00  0.00    +0.000 OA
ATOM     37  H   UNL     1       0.932 -52.532  21.060  0.00  0.00    +0.000 HD
ENDBRANCH  28  34
ENDBRANCH  20  22
TORSDOF 4
ENDMDL
MODEL 9
REMARK VINA RESULT:      -8.5     17.406     20.096
REMARK  Name = Fragment
REMARK  4 active torsions:
REMARK  status: ('A' for Active; 'I' for Inactive)
REMARK    1  A    between atoms: C_17  and  C_21
REMARK    2  A    between atoms: C_20  and  C_22
REMARK    3  A    between atoms: C_25  and  O_31
REMARK    4  A    between atoms: C_28  and  O_34
REMARK                            x       y       z     vdW  Elec       q    Type
REMARK                         _______ _______ _______ _____ _____    ______ ____
ROOT
ATOM      1  C   UNL     1      -9.186 -35.467  11.639  0.00  0.00    +0.000 A 
ATOM      2  C   UNL     1      -9.010 -36.360  10.660  0.00  0.00    +0.000 A 
ATOM      3  C   UNL     1      -8.152 -37.435  10.927  0.00  0.00    +0.000 A 
ATOM      4  C   UNL     1      -7.162 -37.219  11.799  0.00  0.00    +0.000 A 
ATOM      5  C   UNL     1      -7.235 -36.194  12.654  0.00  0.00    +0.000 A 
ATOM      6  C   UNL     1      -8.299 -35.384  12.636  0.00  0.00    +0.000 A 
ATOM      7  C   UNL     1      -8.481 -34.499  13.621  0.00  0.00    +0.000 A 
ATOM      8  C   UNL     1      -7.440 -34.088  14.353  0.00  0.00    +0.000 A 
ATOM      9  C   UNL     1      -7.643 -33.348  15.448  0.00  0.00    +0.000 A 
ATOM     10  C   UNL     1      -8.886 -33.020  15.811  0.00  0.00    +0.000 A 
ATOM     11  C   UNL     1      -9.889 -33.146  14.866  0.00  0.00    +0.000 A 
ATOM     12  C   UNL     1      -9.707 -34.032  13.881  0.00  0.00    +0.000 A 
ATOM     13  C   UNL     1      -6.103 -35.973  13.608  0.00  0.00    +0.000 C 
ATOM     14  C   UNL     1      -6.034 -34.429  13.968  0.00  0.00    +0.000 C 
ATOM     15  C   UNL     1      -5.040 -35.158  12.941  0.00  0.00    +0.000 C 
ATOM     16  C   UNL     1      -5.317 -33.699  12.748  0.00  0.00    +0.000 C 
ATOM     17  C   UNL     1      -4.158 -32.899  13.256  0.00  0.00    +0.000 C 
ATOM     18  N   UNL     1      -3.037 -33.467  13.167  0.00  0.00    +0.000 NA
ATOM     19  N   UNL     1      -3.015 -34.995  11.964  0.00  0.00    +0.000 N 
ATOM     20  C   UNL     1      -3.897 -35.710  12.524  0.00  0.00    +0.000 C 
ATOM     35  H   UNL     1      -2.442 -35.174  11.102  0.00  0.00    +0.000 HD
ENDROOT
BRANCH  17  21
ATOM     21  C   UNL     1      -4.303 -31.673  13.769  0.00  0.00    +0.000 A 
ATOM     23  C   UNL     1      -3.504 -31.263  14.835  0.00  0.00    +0.000 A 
ATOM     24  C   UNL     1      -3.657 -29.983  15.370  0.00  0.00    +0.000 A 
ATOM     25  C   UNL     1      -4.609 -29.114  14.837  0.00  0.00    +0.000 A 
ATOM     29  C   UNL     1      -5.409 -29.525  13.771  0.00  0.00    +0.000 A 
ATOM     30  C   UNL     1      -5.256 -30.804  13.236  0.00  0.00    +0.000 A 
BRANCH  25  31
ATOM     31  O   UNL     1      -4.758 -27.872  15.357  0.00  0.00    +0.000 OA
ATOM     36  H   UNL     1      -5.606 -27.514  15.043  0.00  0.00    +0.000 HD
ENDBRANCH  25  31
ENDBRANCH  17  21
BRANCH  20  22
ATOM     22  C   UNL     1      -3.683 -37.018  12.700  0.00  0.00    +0.000 A 
ATOM     26  C   UNL     1      -3.993 -37.919  11.680  0.00  0.00    +0.000 A 
ATOM     27  C   UNL     1      -3.771 -39.283  11.864  0.00  0.00    +0.000 A 
ATOM     28  C   UNL     1      -3.238 -39.748  13.067  0.00  0.00    +0.000 A 
ATOM     32  C   UNL     1      -2.929 -38.848  14.086  0.00  0.00    +0.000 A 
ATOM     33  C   UNL     1      -3.151 -37.483  13.903  0.00  0.00    +0.000 A 
BRANCH  28  34
ATOM     34  O   UNL     1      -3.023 -41.074  13.244  0.00  0.00    +0.000 OA
ATOM     37  H   UNL     1      -2.240 -41.177  13.811  0.00  0.00    +0.000 HD
ENDBRANCH  28  34
ENDBRANCH  20  22
TORSDOF 4
ENDMDL
MODEL 10
REMARK VINA RESULT:      -8.4      1.871      2.425
REMARK  Name = Fragment
REMARK  4 active torsions:
REMARK  status: ('A' for Active; 'I' for Inactive)
REMARK    1  A    between atoms: C_17  and  C_21
REMARK    2  A    between atoms: C_20  and  C_22
REMARK    3  A    between atoms: C_25  and  O_31
REMARK    4  A    between atoms: C_28  and  O_34
REMARK                            x       y       z     vdW  Elec       q    Type
REMARK                         _______ _______ _______ _____ _____    ______ ____
ROOT
ATOM      1  C   UNL     1     -25.225 -40.893  25.838  0.00  0.00    +0.000 A 
ATOM      2  C   UNL     1     -25.896 -40.106  24.991  0.00  0.00    +0.000 A 
ATOM      3  C   UNL     1     -26.017 -40.552  23.668  0.00  0.00    +0.000 A 
ATOM      4  C   UNL     1     -25.035 -41.329  23.198  0.00  0.00    +0.000 A 
ATOM      5  C   UNL     1     -24.220 -41.964  24.047  0.00  0.00    +0.000 A 
ATOM      6  C   UNL     1     -24.387 -41.822  25.366  0.00  0.00    +0.000 A 
ATOM      7  C   UNL     1     -23.724 -42.617  26.212  0.00  0.00    +0.000 A 
ATOM      8  C   UNL     1     -22.594 -43.216  25.822  0.00  0.00    +0.000 A 
ATOM      9  C   UNL     1     -22.029 -44.148  26.597  0.00  0.00    +0.000 A 
ATOM     10  C   UNL     1     -22.595 -44.480  27.761  0.00  0.00    +0.000 A 
ATOM     11  C   UNL     1     -23.534 -43.615  28.294  0.00  0.00    +0.000 A 
ATOM     12  C   UNL     1     -24.197 -42.820  27.446  0.00  0.00    +0.000 A 
ATOM     13  C   UNL     1     -23.124 -42.816  23.487  0.00  0.00    +0.000 C 
ATOM     14  C   UNL     1     -21.928 -42.858  24.530  0.00  0.00    +0.000 C 
ATOM     15  C   UNL     1     -21.928 -41.963  23.198  0.00  0.00    +0.000 C 
ATOM     16  C   UNL     1     -21.124 -41.493  24.371  0.00  0.00    +0.000 C 
ATOM     17  C   UNL     1     -19.676 -41.792  24.135  0.00  0.00    +0.000 C 
ATOM     18  N   UNL     1     -19.317 -41.779  22.927  0.00  0.00    +0.000 NA
ATOM     19  N   UNL     1     -20.580 -40.904  21.734  0.00  0.00    +0.000 N 
ATOM     20  C   UNL     1     -21.598 -41.626  21.948  0.00  0.00    +0.000 C 
ATOM     35  H   UNL     1     -20.455 -40.076  21.100  0.00  0.00    +0.000 HD
ENDROOT
BRANCH  17  21
ATOM     21  C   UNL     1     -18.827 -42.054  25.134  0.00  0.00    +0.000 A 
ATOM     23  C   UNL     1     -19.222 -41.857  26.456  0.00  0.00    +0.000 A 
ATOM     24  C   UNL     1     -18.335 -42.130  27.498  0.00  0.00    +0.000 A 
ATOM     25  C   UNL     1     -17.053 -42.601  27.216  0.00  0.00    +0.000 A 
ATOM     29  C   UNL     1     -16.658 -42.798  25.893  0.00  0.00    +0.000 A 
ATOM     30  C   UNL     1     -17.544 -42.525  24.852  0.00  0.00    +0.000 A 
BRANCH  25  31
ATOM     31  O   UNL     1     -16.192 -42.866  28.227  0.00  0.00    +0.000 OA
ATOM     36  H   UNL     1     -16.570 -43.583  28.766  0.00  0.00    +0.000 HD
ENDBRANCH  25  31
ENDBRANCH  17  21
BRANCH  20  22
ATOM     22  C   UNL     1     -22.342 -42.051  20.922  0.00  0.00    +0.000 A 
ATOM     26  C   UNL     1     -22.249 -43.376  20.494  0.00  0.00    +0.000 A 
ATOM     27  C   UNL     1     -23.025 -43.819  19.424  0.00  0.00    +0.000 A 
ATOM     28  C   UNL     1     -23.896 -42.939  18.781  0.00  0.00    +0.000 A 
ATOM     32  C   UNL     1     -23.989 -41.614  19.209  0.00  0.00    +0.000 A 
ATOM     33  C   UNL     1     -23.213 -41.171  20.279  0.00  0.00    +0.000 A 
BRANCH  28  34
ATOM     34  O   UNL     1     -24.650 -43.370  17.741  0.00  0.00    +0.000 OA
ATOM     37  H   UNL     1     -24.755 -44.332  17.827  0.00  0.00    +0.000 HD
ENDBRANCH  28  34
ENDBRANCH  20  22
TORSDOF 4
ENDMDL
