MODEL 1
REMARK VINA RESULT:      -9.5      0.000      0.000
REMARK  Name = Fragment
REMARK  4 active torsions:
REMARK  status: ('A' for Active; 'I' for Inactive)
REMARK    1  A    between atoms: N_19  and  C_22
REMARK    2  A    between atoms: C_22  and  C_23
REMARK    3  A    between atoms: C_24  and  C_25
REMARK    4  A    between atoms: C_28  and  C_31
REMARK                            x       y       z     vdW  Elec       q    Type
REMARK                         _______ _______ _______ _____ _____    ______ ____
ROOT
ATOM      1  C   UNL     1     -21.513 -45.708  26.042  0.00  0.00    +0.000 A 
ATOM      2  C   UNL     1     -21.468 -45.363  27.340  0.00  0.00    +0.000 A 
ATOM      3  C   UNL     1     -20.792 -44.269  27.727  0.00  0.00    +0.000 A 
ATOM      4  C   UNL     1     -20.160 -43.526  26.807  0.00  0.00    +0.000 A 
ATOM      5  C   UNL     1     -20.205 -43.870  25.509  0.00  0.00    +0.000 A 
ATOM      6  C   UNL     1     -20.883 -44.961  25.121  0.00  0.00    +0.000 A 
ATOM      7  C   UNL     1     -19.377 -42.262  27.104  0.00  0.00    +0.000 C 
ATOM      8  C   UNL     1     -18.026 -42.489  26.459  0.00  0.00    +0.000 A 
ATOM      9  C   UNL     1     -18.071 -42.833  25.159  0.00  0.00    +0.000 A 
ATOM     10  C   UNL     1     -19.466 -42.932  24.575  0.00  0.00    +0.000 C 
ATOM     11  C   UNL     1     -20.051 -41.141  26.286  0.00  0.00    +0.000 C 
ATOM     12  C   UNL     1     -20.105 -41.543  24.774  0.00  0.00    +0.000 C 
ATOM     13  C   UNL     1     -16.846 -42.363  27.083  0.00  0.00    +0.000 A 
ATOM     14  C   UNL     1     -15.711 -42.586  26.403  0.00  0.00    +0.000 A 
ATOM     15  C   UNL     1     -21.590 -41.516  24.446  0.00  0.00    +0.000 C 
ATOM     16  C   UNL     1     -15.756 -42.931  25.105  0.00  0.00    +0.000 A 
ATOM     17  C   UNL     1     -16.937 -43.054  24.477  0.00  0.00    +0.000 A 
ATOM     18  C   UNL     1     -21.511 -40.927  26.655  0.00  0.00    +0.000 C 
ATOM     19  N   UNL     1     -22.307 -41.174  25.565  0.00  0.00    +0.000 N 
ATOM     20  O   UNL     1     -22.072 -41.766  23.367  0.00  0.00    +0.000 OA
ATOM     21  O   UNL     1     -21.919 -40.600  27.743  0.00  0.00    +0.000 OA
ENDROOT
BRANCH  19  22
ATOM     22  C   UNL     1     -23.760 -41.055  25.592  0.00  0.00    +0.000 C 
BRANCH  22  23
ATOM     23  C   UNL     1     -24.362 -42.396  25.934  0.00  0.00    +0.000 C 
ATOM     24  C   UNL     1     -24.159 -43.022  27.106  0.00  0.00    +0.000 C 
BRANCH  24  25
ATOM     25  C   UNL     1     -24.660 -44.209  27.507  0.00  0.00    +0.000 A 
ATOM     26  C   UNL     1     -24.675 -44.504  28.822  0.00  0.00    +0.000 A 
ATOM     27  C   UNL     1     -25.161 -45.668  29.280  0.00  0.00    +0.000 A 
ATOM     28  C   UNL     1     -25.634 -46.607  28.442  0.00  0.00    +0.000 A 
ATOM     29  C   UNL     1     -25.653 -46.303  27.132  0.00  0.00    +0.000 A 
ATOM     30  C   UNL     1     -25.167 -45.138  26.674  0.00  0.00    +0.000 A 
BRANCH  28  31
ATOM     31  C   UNL     1     -26.236 -47.892  28.959  0.00  0.00    +0.000 C 
ATOM     32  F   UNL     1     -26.030 -47.978  30.264  0.00  0.00    +0.000 F 
ATOM     33  F   UNL     1     -25.695 -48.966  28.407  0.00  0.00    +0.000 F 
ATOM     34  F   UNL     1     -27.544 -47.958  28.764  0.00  0.00    +0.000 F 
ENDBRANCH  28  31
ENDBRANCH  24  25
ENDBRANCH  22  23
ENDBRANCH  19  22
TORSDOF 4
ENDMDL
MODEL 2
REMARK VINA RESULT:      -9.2     27.160     30.265
REMARK  Name = Fragment
REMARK  4 active torsions:
REMARK  status: ('A' for Active; 'I' for Inactive)
REMARK    1  A    between atoms: N_19  and  C_22
REMARK    2  A    between atoms: C_22  and  C_23
REMARK    3  A    between atoms: C_24  and  C_25
REMARK    4  A    between atoms: C_28  and  C_31
REMARK                            x       y       z     vdW  Elec       q    Type
REMARK                         _______ _______ _______ _____ _____    ______ ____
ROOT
ATOM      1  C   UNL     1      -0.274 -58.411  12.093  0.00  0.00    +0.000 A 
ATOM      2  C   UNL     1      -0.134 -59.266  11.066  0.00  0.00    +0.000 A 
ATOM      3  C   UNL     1      -1.140 -59.451  10.196  0.00  0.00    +0.000 A 
ATOM      4  C   UNL     1      -2.288 -58.776  10.364  0.00  0.00    +0.000 A 
ATOM      5  C   UNL     1      -2.428 -57.920  11.391  0.00  0.00    +0.000 A 
ATOM      6  C   UNL     1      -1.421 -57.733  12.258  0.00  0.00    +0.000 A 
ATOM      7  C   UNL     1      -3.493 -58.877   9.451  0.00  0.00    +0.000 C 
ATOM      8  C   UNL     1      -4.651 -59.181  10.379  0.00  0.00    +0.000 A 
ATOM      9  C   UNL     1      -4.791 -58.324  11.406  0.00  0.00    +0.000 A 
ATOM     10  C   UNL     1      -3.765 -57.210  11.451  0.00  0.00    +0.000 C 
ATOM     11  C   UNL     1      -3.745 -57.452   8.917  0.00  0.00    +0.000 C 
ATOM     12  C   UNL     1      -3.905 -56.455  10.113  0.00  0.00    +0.000 C 
ATOM     13  C   UNL     1      -5.506 -60.204  10.231  0.00  0.00    +0.000 A 
ATOM     14  C   UNL     1      -6.500 -60.367  11.118  0.00  0.00    +0.000 A 
ATOM     15  C   UNL     1      -2.801 -55.434   9.884  0.00  0.00    +0.000 C 
ATOM     16  C   UNL     1      -6.639 -59.512  12.145  0.00  0.00    +0.000 A 
ATOM     17  C   UNL     1      -5.786 -58.485  12.292  0.00  0.00    +0.000 A 
ATOM     18  C   UNL     1      -2.567 -56.891   8.135  0.00  0.00    +0.000 C 
ATOM     19  N   UNL     1      -2.088 -55.766   8.758  0.00  0.00    +0.000 N 
ATOM     20  O   UNL     1      -2.574 -54.480  10.589  0.00  0.00    +0.000 OA
ATOM     21  O   UNL     1      -2.107 -57.363   7.123  0.00  0.00    +0.000 OA
ENDROOT
BRANCH  19  22
ATOM     22  C   UNL     1      -0.961 -54.991   8.255  0.00  0.00    +0.000 C 
BRANCH  22  23
ATOM     23  C   UNL     1       0.073 -54.852   9.346  0.00  0.00    +0.000 C 
ATOM     24  C   UNL     1       0.849 -55.867   9.764  0.00  0.00    +0.000 C 
BRANCH  24  25
ATOM     25  C   UNL     1       1.803 -55.839  10.718  0.00  0.00    +0.000 A 
ATOM     26  C   UNL     1       1.753 -54.886  11.669  0.00  0.00    +0.000 A 
ATOM     27  C   UNL     1       2.672 -54.808  12.643  0.00  0.00    +0.000 A 
ATOM     28  C   UNL     1       3.704 -55.668  12.699  0.00  0.00    +0.000 A 
ATOM     29  C   UNL     1       3.740 -56.643  11.774  0.00  0.00    +0.000 A 
ATOM     30  C   UNL     1       2.819 -56.720  10.800  0.00  0.00    +0.000 A 
BRANCH  28  31
ATOM     31  C   UNL     1       4.707 -55.620  13.829  0.00  0.00    +0.000 C 
ATOM     32  F   UNL     1       5.338 -56.782  13.903  0.00  0.00    +0.000 F 
ATOM     33  F   UNL     1       4.139 -55.408  15.005  0.00  0.00    +0.000 F 
ATOM     34  F   UNL     1       5.628 -54.686  13.654  0.00  0.00    +0.000 F 
ENDBRANCH  28  31
ENDBRANCH  24  25
ENDBRANCH  22  23
ENDBRANCH  19  22
TORSDOF 4
ENDMDL
MODEL 3
REMARK VINA RESULT:      -9.0      5.112      8.001
REMARK  Name = Fragment
REMARK  4 active torsions:
REMARK  status: ('A' for Active; 'I' for Inactive)
REMARK    1  A    between atoms: N_19  and  C_22
REMARK    2  A    between atoms: C_22  and  C_23
REMARK    3  A    between atoms: C_24  and  C_25
REMARK    4  A    between atoms: C_28  and  C_31
REMARK                            x       y       z     vdW  Elec       q    Type
REMARK                         _______ _______ _______ _____ _____    ______ ____
ROOT
ATOM      1  C   UNL     1     -19.707 -41.997  21.729  0.00  0.00    +0.000 A 
ATOM      2  C   UNL     1     -19.629 -40.687  21.443  0.00  0.00    +0.000 A 
ATOM      3  C   UNL     1     -20.729 -40.004  21.087  0.00  0.00    +0.000 A 
ATOM      4  C   UNL     1     -21.907 -40.643  21.017  0.00  0.00    +0.000 A 
ATOM      5  C   UNL     1     -21.985 -41.954  21.304  0.00  0.00    +0.000 A 
ATOM      6  C   UNL     1     -20.886 -42.635  21.663  0.00  0.00    +0.000 A 
ATOM      7  C   UNL     1     -23.225 -39.992  20.647  0.00  0.00    +0.000 C 
ATOM      8  C   UNL     1     -23.776 -40.855  19.531  0.00  0.00    +0.000 A 
ATOM      9  C   UNL     1     -23.855 -42.167  19.818  0.00  0.00    +0.000 A 
ATOM     10  C   UNL     1     -23.378 -42.545  21.206  0.00  0.00    +0.000 C 
ATOM     11  C   UNL     1     -24.162 -40.211  21.852  0.00  0.00    +0.000 C 
ATOM     12  C   UNL     1     -24.252 -41.737  22.187  0.00  0.00    +0.000 C 
ATOM     13  C   UNL     1     -24.178 -40.400  18.335  0.00  0.00    +0.000 A 
ATOM     14  C   UNL     1     -24.656 -41.264  17.426  0.00  0.00    +0.000 A 
ATOM     15  C   UNL     1     -23.768 -41.821  23.627  0.00  0.00    +0.000 C 
ATOM     16  C   UNL     1     -24.734 -42.574  17.713  0.00  0.00    +0.000 A 
ATOM     17  C   UNL     1     -24.336 -43.031  18.912  0.00  0.00    +0.000 A 
ATOM     18  C   UNL     1     -23.638 -39.590  23.137  0.00  0.00    +0.000 C 
ATOM     19  N   UNL     1     -23.430 -40.569  24.076  0.00  0.00    +0.000 N 
ATOM     20  O   UNL     1     -23.683 -42.835  24.277  0.00  0.00    +0.000 OA
ATOM     21  O   UNL     1     -23.423 -38.414  23.312  0.00  0.00    +0.000 OA
ENDROOT
BRANCH  19  22
ATOM     22  C   UNL     1     -22.931 -40.297  25.418  0.00  0.00    +0.000 C 
BRANCH  22  23
ATOM     23  C   UNL     1     -21.453 -40.598  25.470  0.00  0.00    +0.000 C 
ATOM     24  C   UNL     1     -20.924 -41.586  26.212  0.00  0.00    +0.000 C 
BRANCH  24  25
ATOM     25  C   UNL     1     -19.625 -41.938  26.315  0.00  0.00    +0.000 A 
ATOM     26  C   UNL     1     -18.915 -42.161  25.191  0.00  0.00    +0.000 A 
ATOM     27  C   UNL     1     -17.621 -42.514  25.230  0.00  0.00    +0.000 A 
ATOM     28  C   UNL     1     -16.978 -42.684  26.398  0.00  0.00    +0.000 A 
ATOM     29  C   UNL     1     -17.672 -42.428  27.521  0.00  0.00    +0.000 A 
ATOM     30  C   UNL     1     -18.967 -42.075  27.482  0.00  0.00    +0.000 A 
BRANCH  28  31
ATOM     31  C   UNL     1     -15.506 -43.021  26.444  0.00  0.00    +0.000 C 
ATOM     32  F   UNL     1     -14.806 -41.905  26.578  0.00  0.00    +0.000 F 
ATOM     33  F   UNL     1     -15.086 -43.616  25.339  0.00  0.00    +0.000 F 
ATOM     34  F   UNL     1     -15.193 -43.804  27.464  0.00  0.00    +0.000 F 
ENDBRANCH  28  31
ENDBRANCH  24  25
ENDBRANCH  22  23
ENDBRANCH  19  22
TORSDOF 4
ENDMDL
MODEL 4
REMARK VINA RESULT:      -8.4     20.966     23.585
REMARK  Name = Fragment
REMARK  4 active torsions:
REMARK  status: ('A' for Active; 'I' for Inactive)
REMARK    1  A    between atoms: N_19  and  C_22
REMARK    2  A    between atoms: C_22  and  C_23
REMARK    3  A    between atoms: C_24  and  C_25
REMARK    4  A    between atoms: C_28  and  C_31
REMARK                            x       y       z     vdW  Elec       q    Type
REMARK                         _______ _______ _______ _____ _____    ______ ____
ROOT
ATOM      1  C   UNL     1      -4.889 -34.195  12.539  0.00  0.00    +0.000 A 
ATOM      2  C   UNL     1      -4.918 -34.862  13.705  0.00  0.00    +0.000 A 
ATOM      3  C   UNL     1      -6.090 -35.144  14.296  0.00  0.00    +0.000 A 
ATOM      4  C   UNL     1      -7.233 -34.749  13.714  0.00  0.00    +0.000 A 
ATOM      5  C   UNL     1      -7.205 -34.082  12.547  0.00  0.00    +0.000 A 
ATOM      6  C   UNL     1      -6.033 -33.804  11.955  0.00  0.00    +0.000 A 
ATOM      7  C   UNL     1      -8.621 -35.014  14.262  0.00  0.00    +0.000 C 
ATOM      8  C   UNL     1      -9.286 -33.654  14.291  0.00  0.00    +0.000 A 
ATOM      9  C   UNL     1      -9.258 -32.986  13.124  0.00  0.00    +0.000 A 
ATOM     10  C   UNL     1      -8.565 -33.715  11.990  0.00  0.00    +0.000 C 
ATOM     11  C   UNL     1      -9.362 -35.821  13.176  0.00  0.00    +0.000 C 
ATOM     12  C   UNL     1      -9.327 -35.046  11.817  0.00  0.00    +0.000 C 
ATOM     13  C   UNL     1      -9.879 -33.112  15.365  0.00  0.00    +0.000 A 
ATOM     14  C   UNL     1     -10.441 -31.897  15.267  0.00  0.00    +0.000 A 
ATOM     15  C   UNL     1      -8.635 -36.011  10.867  0.00  0.00    +0.000 C 
ATOM     16  C   UNL     1     -10.412 -31.230  14.101  0.00  0.00    +0.000 A 
ATOM     17  C   UNL     1      -9.822 -31.773  13.024  0.00  0.00    +0.000 A 
ATOM     18  C   UNL     1      -8.687 -37.146  12.853  0.00  0.00    +0.000 C 
ATOM     19  N   UNL     1      -8.297 -37.160  11.537  0.00  0.00    +0.000 N 
ATOM     20  O   UNL     1      -8.407 -35.799   9.700  0.00  0.00    +0.000 OA
ATOM     21  O   UNL     1      -8.507 -38.051  13.631  0.00  0.00    +0.000 OA
ENDROOT
BRANCH  19  22
ATOM     22  C   UNL     1      -7.622 -38.292  10.915  0.00  0.00    +0.000 C 
BRANCH  22  23
ATOM     23  C   UNL     1      -6.130 -38.077  10.976  0.00  0.00    +0.000 C 
ATOM     24  C   UNL     1      -5.394 -38.301  12.079  0.00  0.00    +0.000 C 
BRANCH  24  25
ATOM     25  C   UNL     1      -4.062 -38.149  12.228  0.00  0.00    +0.000 A 
ATOM     26  C   UNL     1      -3.516 -38.310  13.450  0.00  0.00    +0.000 A 
ATOM     27  C   UNL     1      -2.199 -38.173  13.661  0.00  0.00    +0.000 A 
ATOM     28  C   UNL     1      -1.362 -37.843  12.661  0.00  0.00    +0.000 A 
ATOM     29  C   UNL     1      -1.896 -37.716  11.434  0.00  0.00    +0.000 A 
ATOM     30  C   UNL     1      -3.215 -37.854  11.224  0.00  0.00    +0.000 A 
BRANCH  28  31
ATOM     31  C   UNL     1       0.129 -37.747  12.882  0.00  0.00    +0.000 C 
ATOM     32  F   UNL     1       0.598 -36.684  12.248  0.00  0.00    +0.000 F 
ATOM     33  F   UNL     1       0.782 -38.799  12.417  0.00  0.00    +0.000 F 
ATOM     34  F   UNL     1       0.448 -37.611  14.160  0.00  0.00    +0.000 F 
ENDBRANCH  28  31
ENDBRANCH  24  25
ENDBRANCH  22  23
ENDBRANCH  19  22
TORSDOF 4
ENDMDL
MODEL 5
REMARK VINA RESULT:      -8.2     24.280     26.723
REMARK  Name = Fragment
REMARK  4 active torsions:
REMARK  status: ('A' for Active; 'I' for Inactive)
REMARK    1  A    between atoms: N_19  and  C_22
REMARK    2  A    between atoms: C_22  and  C_23
REMARK    3  A    between atoms: C_24  and  C_25
REMARK    4  A    between atoms: C_28  and  C_31
REMARK                            x       y       z     vdW  Elec       q    Type
REMARK                         _______ _______ _______ _____ _____    ______ ____
ROOT
ATOM      1  C   UNL     1      -1.457 -35.704  10.372  0.00  0.00    +0.000 A 
ATOM      2  C   UNL     1      -2.054 -36.431   9.412  0.00  0.00    +0.000 A 
ATOM      3  C   UNL     1      -2.842 -37.468   9.737  0.00  0.00    +0.000 A 
ATOM      4  C   UNL     1      -3.026 -37.775  11.031  0.00  0.00    +0.000 A 
ATOM      5  C   UNL     1      -2.429 -37.048  11.992  0.00  0.00    +0.000 A 
ATOM      6  C   UNL     1      -1.645 -36.009  11.666  0.00  0.00    +0.000 A 
ATOM      7  C   UNL     1      -3.900 -38.905  11.537  0.00  0.00    +0.000 C 
ATOM      8  C   UNL     1      -3.002 -39.695  12.467  0.00  0.00    +0.000 A 
ATOM      9  C   UNL     1      -2.405 -38.967  13.428  0.00  0.00    +0.000 A 
ATOM     10  C   UNL     1      -2.738 -37.489  13.408  0.00  0.00    +0.000 C 
ATOM     11  C   UNL     1      -4.965 -38.249  12.438  0.00  0.00    +0.000 C 
ATOM     12  C   UNL     1      -4.271 -37.401  13.556  0.00  0.00    +0.000 C 
ATOM     13  C   UNL     1      -2.788 -41.016  12.389  0.00  0.00    +0.000 A 
ATOM     14  C   UNL     1      -1.973 -41.607  13.276  0.00  0.00    +0.000 A 
ATOM     15  C   UNL     1      -4.813 -35.997  13.335  0.00  0.00    +0.000 C 
ATOM     16  C   UNL     1      -1.376 -40.881  14.236  0.00  0.00    +0.000 A 
ATOM     17  C   UNL     1      -1.592 -39.557  14.317  0.00  0.00    +0.000 A 
ATOM     18  C   UNL     1      -5.829 -37.237  11.702  0.00  0.00    +0.000 C 
ATOM     19  N   UNL     1      -5.671 -35.994  12.262  0.00  0.00    +0.000 N 
ATOM     20  O   UNL     1      -4.528 -35.026  13.993  0.00  0.00    +0.000 OA
ATOM     21  O   UNL     1      -6.543 -37.477  10.757  0.00  0.00    +0.000 OA
ENDROOT
BRANCH  19  22
ATOM     22  C   UNL     1      -6.366 -34.806  11.784  0.00  0.00    +0.000 C 
BRANCH  22  23
ATOM     23  C   UNL     1      -5.406 -33.954  10.990  0.00  0.00    +0.000 C 
ATOM     24  C   UNL     1      -4.984 -34.270   9.753  0.00  0.00    +0.000 C 
BRANCH  24  25
ATOM     25  C   UNL     1      -4.141 -33.572   8.963  0.00  0.00    +0.000 A 
ATOM     26  C   UNL     1      -3.358 -32.625   9.516  0.00  0.00    +0.000 A 
ATOM     27  C   UNL     1      -2.501 -31.900   8.782  0.00  0.00    +0.000 A 
ATOM     28  C   UNL     1      -2.402 -32.070   7.452  0.00  0.00    +0.000 A 
ATOM     29  C   UNL     1      -3.155 -33.037   6.901  0.00  0.00    +0.000 A 
ATOM     30  C   UNL     1      -4.014 -33.763   7.637  0.00  0.00    +0.000 A 
BRANCH  28  31
ATOM     31  C   UNL     1      -1.395 -31.297   6.633  0.00  0.00    +0.000 C 
ATOM     32  F   UNL     1      -1.990 -30.808   5.555  0.00  0.00    +0.000 F 
ATOM     33  F   UNL     1      -0.391 -32.051   6.216  0.00  0.00    +0.000 F 
ATOM     34  F   UNL     1      -0.879 -30.271   7.292  0.00  0.00    +0.000 F 
ENDBRANCH  28  31
ENDBRANCH  24  25
ENDBRANCH  22  23
ENDBRANCH  19  22
TORSDOF 4
ENDMDL
MODEL 6
REMARK VINA RESULT:      -8.0     22.279     24.217
REMARK  Name = Fragment
REMARK  4 active torsions:
REMARK  status: ('A' for Active; 'I' for Inactive)
REMARK    1  A    between atoms: N_19  and  C_22
REMARK    2  A    between atoms: C_22  and  C_23
REMARK    3  A    between atoms: C_24  and  C_25
REMARK    4  A    between atoms: C_28  and  C_31
REMARK                            x       y       z     vdW  Elec       q    Type
REMARK                         _______ _______ _______ _____ _____    ______ ____
ROOT
ATOM      1  C   UNL     1      -6.764 -37.643  11.632  0.00  0.00    +0.000 A 
ATOM      2  C   UNL     1      -6.499 -36.831  12.670  0.00  0.00    +0.000 A 
ATOM      3  C   UNL     1      -5.257 -36.763  13.177  0.00  0.00    +0.000 A 
ATOM      4  C   UNL     1      -4.285 -37.515  12.640  0.00  0.00    +0.000 A 
ATOM      5  C   UNL     1      -4.549 -38.327  11.602  0.00  0.00    +0.000 A 
ATOM      6  C   UNL     1      -5.789 -38.392  11.093  0.00  0.00    +0.000 A 
ATOM      7  C   UNL     1      -2.841 -37.523  13.103  0.00  0.00    +0.000 C 
ATOM      8  C   UNL     1      -2.525 -38.985  13.342  0.00  0.00    +0.000 A 
ATOM      9  C   UNL     1      -2.789 -39.797  12.303  0.00  0.00    +0.000 A 
ATOM     10  C   UNL     1      -3.357 -39.103  11.081  0.00  0.00    +0.000 C 
ATOM     11  C   UNL     1      -1.999 -37.105  11.880  0.00  0.00    +0.000 C 
ATOM     12  C   UNL     1      -2.309 -38.048  10.671  0.00  0.00    +0.000 C 
ATOM     13  C   UNL     1      -2.012 -39.484  14.476  0.00  0.00    +0.000 A 
ATOM     14  C   UNL     1      -1.768 -40.801  14.567  0.00  0.00    +0.000 A 
ATOM     15  C   UNL     1      -2.806 -37.100   9.590  0.00  0.00    +0.000 C 
ATOM     16  C   UNL     1      -2.033 -41.612  13.530  0.00  0.00    +0.000 A 
ATOM     17  C   UNL     1      -2.543 -41.113  12.392  0.00  0.00    +0.000 A 
ATOM     18  C   UNL     1      -2.353 -35.721  11.357  0.00  0.00    +0.000 C 
ATOM     19  N   UNL     1      -2.812 -35.814  10.068  0.00  0.00    +0.000 N 
ATOM     20  O   UNL     1      -3.155 -37.427   8.481  0.00  0.00    +0.000 OA
ATOM     21  O   UNL     1      -2.257 -34.689  11.979  0.00  0.00    +0.000 OA
ENDROOT
BRANCH  19  22
ATOM     22  C   UNL     1      -3.232 -34.660   9.282  0.00  0.00    +0.000 C 
BRANCH  22  23
ATOM     23  C   UNL     1      -4.732 -34.518   9.369  0.00  0.00    +0.000 C 
ATOM     24  C   UNL     1      -5.376 -34.136  10.485  0.00  0.00    +0.000 C 
BRANCH  24  25
ATOM     25  C   UNL     1      -6.705 -33.970  10.657  0.00  0.00    +0.000 A 
ATOM     26  C   UNL     1      -7.552 -34.457   9.729  0.00  0.00    +0.000 A 
ATOM     27  C   UNL     1      -8.882 -34.323   9.846  0.00  0.00    +0.000 A 
ATOM     28  C   UNL     1      -9.430 -33.674  10.887  0.00  0.00    +0.000 A 
ATOM     29  C   UNL     1      -8.591 -33.218  11.834  0.00  0.00    +0.000 A 
ATOM     30  C   UNL     1      -7.260 -33.352  11.717  0.00  0.00    +0.000 A 
BRANCH  28  31
ATOM     31  C   UNL     1     -10.928 -33.575  11.052  0.00  0.00    +0.000 C 
ATOM     32  F   UNL     1     -11.510 -33.738   9.874  0.00  0.00    +0.000 F 
ATOM     33  F   UNL     1     -11.313 -32.397  11.518  0.00  0.00    +0.000 F 
ATOM     34  F   UNL     1     -11.416 -34.504  11.860  0.00  0.00    +0.000 F 
ENDBRANCH  28  31
ENDBRANCH  24  25
ENDBRANCH  22  23
ENDBRANCH  19  22
TORSDOF 4
ENDMDL
MODEL 7
REMARK VINA RESULT:      -8.0     19.034     21.607
REMARK  Name = Fragment
REMARK  4 active torsions:
REMARK  status: ('A' for Active; 'I' for Inactive)
REMARK    1  A    between atoms: N_19  and  C_22
REMARK    2  A    between atoms: C_22  and  C_23
REMARK    3  A    between atoms: C_24  and  C_25
REMARK    4  A    between atoms: C_28  and  C_31
REMARK                            x       y       z     vdW  Elec       q    Type
REMARK                         _______ _______ _______ _____ _____    ______ ____
ROOT
ATOM      1  C   UNL     1     -10.476 -34.496  11.204  0.00  0.00    +0.000 A 
ATOM      2  C   UNL     1      -9.265 -33.916  11.256  0.00  0.00    +0.000 A 
ATOM      3  C   UNL     1      -9.098 -32.753  11.905  0.00  0.00    +0.000 A 
ATOM      4  C   UNL     1     -10.152 -32.172  12.497  0.00  0.00    +0.000 A 
ATOM      5  C   UNL     1     -11.364 -32.751  12.445  0.00  0.00    +0.000 A 
ATOM      6  C   UNL     1     -11.530 -33.916  11.800  0.00  0.00    +0.000 A 
ATOM      7  C   UNL     1     -10.101 -30.871  13.274  0.00  0.00    +0.000 C 
ATOM      8  C   UNL     1     -11.189 -30.016  12.659  0.00  0.00    +0.000 A 
ATOM      9  C   UNL     1     -12.402 -30.596  12.607  0.00  0.00    +0.000 A 
ATOM     10  C   UNL     1     -12.461 -32.001  13.173  0.00  0.00    +0.000 C 
ATOM     11  C   UNL     1     -10.586 -31.207  14.700  0.00  0.00    +0.000 C 
ATOM     12  C   UNL     1     -11.996 -31.884  14.639  0.00  0.00    +0.000 C 
ATOM     13  C   UNL     1     -11.016 -28.770  12.194  0.00  0.00    +0.000 A 
ATOM     14  C   UNL     1     -12.061 -28.108  11.674  0.00  0.00    +0.000 A 
ATOM     15  C   UNL     1     -11.779 -33.233  15.307  0.00  0.00    +0.000 C 
ATOM     16  C   UNL     1     -13.272 -28.687  11.621  0.00  0.00    +0.000 A 
ATOM     17  C   UNL     1     -13.448 -29.934  12.090  0.00  0.00    +0.000 A 
ATOM     18  C   UNL     1      -9.718 -32.244  15.397  0.00  0.00    +0.000 C 
ATOM     19  N   UNL     1     -10.466 -33.356  15.688  0.00  0.00    +0.000 N 
ATOM     20  O   UNL     1     -12.628 -34.076  15.469  0.00  0.00    +0.000 OA
ATOM     21  O   UNL     1      -8.544 -32.120  15.651  0.00  0.00    +0.000 OA
ENDROOT
BRANCH  19  22
ATOM     22  C   UNL     1      -9.925 -34.531  16.360  0.00  0.00    +0.000 C 
BRANCH  22  23
ATOM     23  C   UNL     1      -9.627 -35.598  15.335  0.00  0.00    +0.000 C 
ATOM     24  C   UNL     1      -8.567 -35.557  14.510  0.00  0.00    +0.000 C 
BRANCH  24  25
ATOM     25  C   UNL     1      -8.212 -36.462  13.574  0.00  0.00    +0.000 A 
ATOM     26  C   UNL     1      -6.991 -36.379  13.011  0.00  0.00    +0.000 A 
ATOM     27  C   UNL     1      -6.582 -37.250  12.076  0.00  0.00    +0.000 A 
ATOM     28  C   UNL     1      -7.386 -38.235  11.639  0.00  0.00    +0.000 A 
ATOM     29  C   UNL     1      -8.592 -38.344  12.222  0.00  0.00    +0.000 A 
ATOM     30  C   UNL     1      -9.001 -37.471  13.159  0.00  0.00    +0.000 A 
BRANCH  28  31
ATOM     31  C   UNL     1      -6.907 -39.253  10.631  0.00  0.00    +0.000 C 
ATOM     32  F   UNL     1      -5.660 -39.597  10.915  0.00  0.00    +0.000 F 
ATOM     33  F   UNL     1      -6.911 -38.784   9.393  0.00  0.00    +0.000 F 
ATOM     34  F   UNL     1      -7.630 -40.362  10.642  0.00  0.00    +0.000 F 
ENDBRANCH  28  31
ENDBRANCH  24  25
ENDBRANCH  22  23
ENDBRANCH  19  22
TORSDOF 4
ENDMDL
MODEL 8
REMARK VINA RESULT:      -7.9     19.681     21.910
REMARK  Name = Fragment
REMARK  4 active torsions:
REMARK  status: ('A' for Active; 'I' for Inactive)
REMARK    1  A    between atoms: N_19  and  C_22
REMARK    2  A    between atoms: C_22  and  C_23
REMARK    3  A    between atoms: C_24  and  C_25
REMARK    4  A    between atoms: C_28  and  C_31
REMARK                            x       y       z     vdW  Elec       q    Type
REMARK                         _______ _______ _______ _____ _____    ______ ____
ROOT
ATOM      1  C   UNL     1      -9.898 -32.880  10.984  0.00  0.00    +0.000 A 
ATOM      2  C   UNL     1     -10.977 -33.671  11.108  0.00  0.00    +0.000 A 
ATOM      3  C   UNL     1     -10.876 -34.863  11.719  0.00  0.00    +0.000 A 
ATOM      4  C   UNL     1      -9.688 -35.258  12.201  0.00  0.00    +0.000 A 
ATOM      5  C   UNL     1      -8.609 -34.466  12.077  0.00  0.00    +0.000 A 
ATOM      6  C   UNL     1      -8.710 -33.274  11.470  0.00  0.00    +0.000 A 
ATOM      7  C   UNL     1      -9.438 -36.566  12.925  0.00  0.00    +0.000 C 
ATOM      8  C   UNL     1      -8.271 -37.192  12.189  0.00  0.00    +0.000 A 
ATOM      9  C   UNL     1      -7.191 -36.400  12.065  0.00  0.00    +0.000 A 
ATOM     10  C   UNL     1      -7.336 -35.024  12.683  0.00  0.00    +0.000 C 
ATOM     11  C   UNL     1      -8.901 -36.186  14.320  0.00  0.00    +0.000 C 
ATOM     12  C   UNL     1      -7.646 -35.263  14.175  0.00  0.00    +0.000 C 
ATOM     13  C   UNL     1      -8.258 -38.436  11.688  0.00  0.00    +0.000 A 
ATOM     14  C   UNL     1      -7.159 -38.883  11.059  0.00  0.00    +0.000 A 
ATOM     15  C   UNL     1      -8.043 -33.993  14.914  0.00  0.00    +0.000 C 
ATOM     16  C   UNL     1      -6.081 -38.092  10.934  0.00  0.00    +0.000 A 
ATOM     17  C   UNL     1      -6.092 -36.847  11.439  0.00  0.00    +0.000 A 
ATOM     18  C   UNL     1      -9.877 -35.344  15.126  0.00  0.00    +0.000 C 
ATOM     19  N   UNL     1      -9.319 -34.121  15.403  0.00  0.00    +0.000 N 
ATOM     20  O   UNL     1      -7.348 -33.014  15.043  0.00  0.00    +0.000 OA
ATOM     21  O   UNL     1     -10.984 -35.685  15.467  0.00  0.00    +0.000 OA
ENDROOT
BRANCH  19  22
ATOM     22  C   UNL     1     -10.002 -33.083  16.165  0.00  0.00    +0.000 C 
BRANCH  22  23
ATOM     23  C   UNL     1     -10.430 -31.979  15.228  0.00  0.00    +0.000 C 
ATOM     24  C   UNL     1     -11.454 -32.095  14.366  0.00  0.00    +0.000 C 
BRANCH  24  25
ATOM     25  C   UNL     1     -11.917 -31.167  13.503  0.00  0.00    +0.000 A 
ATOM     26  C   UNL     1     -11.109 -30.154  13.134  0.00  0.00    +0.000 A 
ATOM     27  C   UNL     1     -11.512 -29.202  12.278  0.00  0.00    +0.000 A 
ATOM     28  C   UNL     1     -12.756 -29.204  11.767  0.00  0.00    +0.000 A 
ATOM     29  C   UNL     1     -13.554 -30.232  12.104  0.00  0.00    +0.000 A 
ATOM     30  C   UNL     1     -13.149 -31.184  12.960  0.00  0.00    +0.000 A 
BRANCH  28  31
ATOM     31  C   UNL     1     -13.193 -28.169  10.758  0.00  0.00    +0.000 C 
ATOM     32  F   UNL     1     -14.403 -28.473  10.314  0.00  0.00    +0.000 F 
ATOM     33  F   UNL     1     -12.393 -28.114   9.705  0.00  0.00    +0.000 F 
ATOM     34  F   UNL     1     -13.261 -26.951  11.272  0.00  0.00    +0.000 F 
ENDBRANCH  28  31
ENDBRANCH  24  25
ENDBRANCH  22  23
ENDBRANCH  19  22
TORSDOF 4
ENDMDL
MODEL 9
REMARK VINA RESULT:      -7.6     19.923     23.202
REMARK  Name = Fragment
REMARK  4 active torsions:
REMARK  status: ('A' for Active; 'I' for Inactive)
REMARK    1  A    between atoms: N_19  and  C_22
REMARK    2  A    between atoms: C_22  and  C_23
REMARK    3  A    between atoms: C_24  and  C_25
REMARK    4  A    between atoms: C_28  and  C_31
REMARK                            x       y       z     vdW  Elec       q    Type
REMARK                         _______ _______ _______ _____ _____    ______ ____
ROOT
ATOM      1  C   UNL     1      -7.404 -35.123  11.036  0.00  0.00    +0.000 A 
ATOM      2  C   UNL     1      -7.682 -35.767  12.182  0.00  0.00    +0.000 A 
ATOM      3  C   UNL     1      -6.750 -36.532  12.773  0.00  0.00    +0.000 A 
ATOM      4  C   UNL     1      -5.540 -36.651  12.206  0.00  0.00    +0.000 A 
ATOM      5  C   UNL     1      -5.261 -36.006  11.060  0.00  0.00    +0.000 A 
ATOM      6  C   UNL     1      -6.191 -35.239  10.472  0.00  0.00    +0.000 A 
ATOM      7  C   UNL     1      -4.394 -37.465  12.774  0.00  0.00    +0.000 C 
ATOM      8  C   UNL     1      -3.960 -38.360  11.631  0.00  0.00    +0.000 A 
ATOM      9  C   UNL     1      -3.680 -37.715  10.484  0.00  0.00    +0.000 A 
ATOM     10  C   UNL     1      -3.852 -36.210  10.541  0.00  0.00    +0.000 C 
ATOM     11  C   UNL     1      -3.235 -36.474  12.996  0.00  0.00    +0.000 C 
ATOM     12  C   UNL     1      -2.911 -35.722  11.662  0.00  0.00    +0.000 C 
ATOM     13  C   UNL     1      -3.837 -39.693  11.703  0.00  0.00    +0.000 A 
ATOM     14  C   UNL     1      -3.437 -40.379  10.622  0.00  0.00    +0.000 A 
ATOM     15  C   UNL     1      -3.113 -34.256  12.014  0.00  0.00    +0.000 C 
ATOM     16  C   UNL     1      -3.158 -39.736   9.476  0.00  0.00    +0.000 A 
ATOM     17  C   UNL     1      -3.278 -38.400   9.403  0.00  0.00    +0.000 A 
ATOM     18  C   UNL     1      -3.584 -35.354  13.965  0.00  0.00    +0.000 C 
ATOM     19  N   UNL     1      -3.504 -34.143  13.325  0.00  0.00    +0.000 N 
ATOM     20  O   UNL     1      -2.962 -33.328  11.256  0.00  0.00    +0.000 OA
ATOM     21  O   UNL     1      -3.896 -35.499  15.123  0.00  0.00    +0.000 OA
ENDROOT
BRANCH  19  22
ATOM     22  C   UNL     1      -3.779 -32.871  13.982  0.00  0.00    +0.000 C 
BRANCH  22  23
ATOM     23  C   UNL     1      -5.222 -32.840  14.422  0.00  0.00    +0.000 C 
ATOM     24  C   UNL     1      -6.251 -32.666  13.575  0.00  0.00    +0.000 C 
BRANCH  24  25
ATOM     25  C   UNL     1      -7.568 -32.635  13.869  0.00  0.00    +0.000 A 
ATOM     26  C   UNL     1      -7.980 -33.064  15.078  0.00  0.00    +0.000 A 
ATOM     27  C   UNL     1      -9.275 -33.056  15.428  0.00  0.00    +0.000 A 
ATOM     28  C   UNL     1     -10.227 -32.641  14.574  0.00  0.00    +0.000 A 
ATOM     29  C   UNL     1      -9.818 -32.180  13.379  0.00  0.00    +0.000 A 
ATOM     30  C   UNL     1      -8.521 -32.187  13.030  0.00  0.00    +0.000 A 
BRANCH  28  31
ATOM     31  C   UNL     1     -11.679 -32.575  14.986  0.00  0.00    +0.000 C 
ATOM     32  F   UNL     1     -11.787 -31.863  16.097  0.00  0.00    +0.000 F 
ATOM     33  F   UNL     1     -12.193 -33.769  15.235  0.00  0.00    +0.000 F 
ATOM     34  F   UNL     1     -12.443 -31.993  14.074  0.00  0.00    +0.000 F 
ENDBRANCH  28  31
ENDBRANCH  24  25
ENDBRANCH  22  23
ENDBRANCH  19  22
TORSDOF 4
ENDMDL
MODEL 10
REMARK VINA RESULT:      -7.5     34.827     37.322
REMARK  Name = Fragment
REMARK  4 active torsions:
REMARK  status: ('A' for Active; 'I' for Inactive)
REMARK    1  A    between atoms: N_19  and  C_22
REMARK    2  A    between atoms: C_22  and  C_23
REMARK    3  A    between atoms: C_24  and  C_25
REMARK    4  A    between atoms: C_28  and  C_31
REMARK                            x       y       z     vdW  Elec       q    Type
REMARK                         _______ _______ _______ _____ _____    ______ ____
ROOT
ATOM      1  C   UNL     1      -7.233 -22.516  54.658  0.00  0.00    +0.000 A 
ATOM      2  C   UNL     1      -6.504 -22.564  53.531  0.00  0.00    +0.000 A 
ATOM      3  C   UNL     1      -6.776 -23.480  52.587  0.00  0.00    +0.000 A 
ATOM      4  C   UNL     1      -7.779 -24.349  52.781  0.00  0.00    +0.000 A 
ATOM      5  C   UNL     1      -8.509 -24.301  53.909  0.00  0.00    +0.000 A 
ATOM      6  C   UNL     1      -8.240 -23.383  54.850  0.00  0.00    +0.000 A 
ATOM      7  C   UNL     1      -8.202 -25.419  51.794  0.00  0.00    +0.000 C 
ATOM      8  C   UNL     1      -8.211 -26.700  52.601  0.00  0.00    +0.000 A 
ATOM      9  C   UNL     1      -8.942 -26.652  53.729  0.00  0.00    +0.000 A 
ATOM     10  C   UNL     1      -9.624 -25.325  53.990  0.00  0.00    +0.000 C 
ATOM     11  C   UNL     1      -9.678 -25.126  51.454  0.00  0.00    +0.000 C 
ATOM     12  C   UNL     1     -10.527 -25.068  52.767  0.00  0.00    +0.000 C 
ATOM     13  C   UNL     1      -7.567 -27.827  52.261  0.00  0.00    +0.000 A 
ATOM     14  C   UNL     1      -7.654 -28.904  53.057  0.00  0.00    +0.000 A 
ATOM     15  C   UNL     1     -11.126 -23.670  52.749  0.00  0.00    +0.000 C 
ATOM     16  C   UNL     1      -8.383 -28.856  54.184  0.00  0.00    +0.000 A 
ATOM     17  C   UNL     1      -9.032 -27.730  54.524  0.00  0.00    +0.000 A 
ATOM     18  C   UNL     1      -9.885 -23.755  50.829  0.00  0.00    +0.000 C 
ATOM     19  N   UNL     1     -10.700 -22.996  51.631  0.00  0.00    +0.000 N 
ATOM     20  O   UNL     1     -11.858 -23.213  53.594  0.00  0.00    +0.000 OA
ATOM     21  O   UNL     1      -9.402 -23.376  49.789  0.00  0.00    +0.000 OA
ENDROOT
BRANCH  19  22
ATOM     22  C   UNL     1     -11.093 -21.630  51.310  0.00  0.00    +0.000 C 
BRANCH  22  23
ATOM     23  C   UNL     1     -10.446 -20.682  52.290  0.00  0.00    +0.000 C 
ATOM     24  C   UNL     1      -9.146 -20.347  52.248  0.00  0.00    +0.000 C 
BRANCH  24  25
ATOM     25  C   UNL     1      -8.482 -19.505  53.068  0.00  0.00    +0.000 A 
ATOM     26  C   UNL     1      -8.980 -19.257  54.296  0.00  0.00    +0.000 A 
ATOM     27  C   UNL     1      -8.364 -18.430  55.155  0.00  0.00    +0.000 A 
ATOM     28  C   UNL     1      -7.231 -17.791  54.818  0.00  0.00    +0.000 A 
ATOM     29  C   UNL     1      -6.711 -18.062  53.609  0.00  0.00    +0.000 A 
ATOM     30  C   UNL     1      -7.327 -18.890  52.749  0.00  0.00    +0.000 A 
BRANCH  28  31
ATOM     31  C   UNL     1      -6.504 -16.907  55.805  0.00  0.00    +0.000 C 
ATOM     32  F   UNL     1      -6.413 -17.532  56.969  0.00  0.00    +0.000 F 
ATOM     33  F   UNL     1      -7.133 -15.764  56.024  0.00  0.00    +0.000 F 
ATOM     34  F   UNL     1      -5.271 -16.618  55.420  0.00  0.00    +0.000 F 
ENDBRANCH  28  31
ENDBRANCH  24  25
ENDBRANCH  22  23
ENDBRANCH  19  22
TORSDOF 4
ENDMDL
MODEL 11
REMARK VINA RESULT:      -7.5     29.729     32.121
REMARK  Name = Fragment
REMARK  4 active torsions:
REMARK  status: ('A' for Active; 'I' for Inactive)
REMARK    1  A    between atoms: N_19  and  C_22
REMARK    2  A    between atoms: C_22  and  C_23
REMARK    3  A    between atoms: C_24  and  C_25
REMARK    4  A    between atoms: C_28  and  C_31
REMARK                            x       y       z     vdW  Elec       q    Type
REMARK                         _______ _______ _______ _____ _____    ______ ____
ROOT
ATOM      1  C   UNL     1       1.797 -59.060   9.698  0.00  0.00    +0.000 A 
ATOM      2  C   UNL     1       2.467 -58.481   8.688  0.00  0.00    +0.000 A 
ATOM      3  C   UNL     1       1.800 -57.916   7.668  0.00  0.00    +0.000 A 
ATOM      4  C   UNL     1       0.459 -57.938   7.666  0.00  0.00    +0.000 A 
ATOM      5  C   UNL     1      -0.212 -58.516   8.678  0.00  0.00    +0.000 A 
ATOM      6  C   UNL     1       0.454 -59.077   9.698  0.00  0.00    +0.000 A 
ATOM      7  C   UNL     1      -0.416 -57.325   6.591  0.00  0.00    +0.000 C 
ATOM      8  C   UNL     1      -1.351 -58.442   6.177  0.00  0.00    +0.000 A 
ATOM      9  C   UNL     1      -2.023 -59.020   7.189  0.00  0.00    +0.000 A 
ATOM     10  C   UNL     1      -1.722 -58.450   8.561  0.00  0.00    +0.000 C 
ATOM     11  C   UNL     1      -1.298 -56.279   7.302  0.00  0.00    +0.000 C 
ATOM     12  C   UNL     1      -2.078 -56.952   8.481  0.00  0.00    +0.000 C 
ATOM     13  C   UNL     1      -1.542 -58.857   4.916  0.00  0.00    +0.000 A 
ATOM     14  C   UNL     1      -2.404 -59.856   4.672  0.00  0.00    +0.000 A 
ATOM     15  C   UNL     1      -1.631 -56.166   9.705  0.00  0.00    +0.000 C 
ATOM     16  C   UNL     1      -3.074 -60.435   5.683  0.00  0.00    +0.000 A 
ATOM     17  C   UNL     1      -2.887 -60.017   6.946  0.00  0.00    +0.000 A 
ATOM     18  C   UNL     1      -0.493 -55.182   7.982  0.00  0.00    +0.000 C 
ATOM     19  N   UNL     1      -0.729 -55.200   9.333  0.00  0.00    +0.000 N 
ATOM     20  O   UNL     1      -2.004 -56.365  10.837  0.00  0.00    +0.000 OA
ATOM     21  O   UNL     1       0.253 -54.412   7.426  0.00  0.00    +0.000 OA
ENDROOT
BRANCH  19  22
ATOM     22  C   UNL     1      -0.108 -54.270  10.267  0.00  0.00    +0.000 C 
BRANCH  22  23
ATOM     23  C   UNL     1       1.083 -54.935  10.913  0.00  0.00    +0.000 C 
ATOM     24  C   UNL     1       1.772 -54.392  11.932  0.00  0.00    +0.000 C 
BRANCH  24  25
ATOM     25  C   UNL     1       2.836 -54.911  12.580  0.00  0.00    +0.000 A 
ATOM     26  C   UNL     1       4.067 -54.746  12.056  0.00  0.00    +0.000 A 
ATOM     27  C   UNL     1       5.162 -55.238  12.654  0.00  0.00    +0.000 A 
ATOM     28  C   UNL     1       5.078 -55.943  13.795  0.00  0.00    +0.000 A 
ATOM     29  C   UNL     1       3.857 -56.080  14.341  0.00  0.00    +0.000 A 
ATOM     30  C   UNL     1       2.760 -55.587  13.742  0.00  0.00    +0.000 A 
BRANCH  28  31
ATOM     31  C   UNL     1       6.315 -56.446  14.502  0.00  0.00    +0.000 C 
ATOM     32  F   UNL     1       6.321 -57.770  14.484  0.00  0.00    +0.000 F 
ATOM     33  F   UNL     1       6.364 -56.073  15.771  0.00  0.00    +0.000 F 
ATOM     34  F   UNL     1       7.435 -56.043  13.922  0.00  0.00    +0.000 F 
ENDBRANCH  28  31
ENDBRANCH  24  25
ENDBRANCH  22  23
ENDBRANCH  19  22
TORSDOF 4
ENDMDL
MODEL 12
REMARK VINA RESULT:      -7.4     36.347     39.772
REMARK  Name = Fragment
REMARK  4 active torsions:
REMARK  status: ('A' for Active; 'I' for Inactive)
REMARK    1  A    between atoms: N_19  and  C_22
REMARK    2  A    between atoms: C_22  and  C_23
REMARK    3  A    between atoms: C_24  and  C_25
REMARK    4  A    between atoms: C_28  and  C_31
REMARK                            x       y       z     vdW  Elec       q    Type
REMARK                         _______ _______ _______ _____ _____    ______ ____
ROOT
ATOM      1  C   UNL     1      12.564 -24.273  24.755  0.00  0.00    +0.000 A 
ATOM      2  C   UNL     1      11.845 -25.050  25.583  0.00  0.00    +0.000 A 
ATOM      3  C   UNL     1      11.419 -26.257  25.180  0.00  0.00    +0.000 A 
ATOM      4  C   UNL     1      11.714 -26.680  23.941  0.00  0.00    +0.000 A 
ATOM      5  C   UNL     1      12.434 -25.904  23.113  0.00  0.00    +0.000 A 
ATOM      6  C   UNL     1      12.863 -24.699  23.517  0.00  0.00    +0.000 A 
ATOM      7  C   UNL     1      11.311 -28.024  23.366  0.00  0.00    +0.000 C 
ATOM      8  C   UNL     1      10.629 -27.688  22.056  0.00  0.00    +0.000 A 
ATOM      9  C   UNL     1      11.349 -26.912  21.226  0.00  0.00    +0.000 A 
ATOM     10  C   UNL     1      12.713 -26.512  21.753  0.00  0.00    +0.000 C 
ATOM     11  C   UNL     1      12.624 -28.737  22.986  0.00  0.00    +0.000 C 
ATOM     12  C   UNL     1      13.464 -27.832  22.023  0.00  0.00    +0.000 C 
ATOM     13  C   UNL     1       9.408 -28.111  21.694  0.00  0.00    +0.000 A 
ATOM     14  C   UNL     1       8.911 -27.752  20.501  0.00  0.00    +0.000 A 
ATOM     15  C   UNL     1      14.776 -27.632  22.766  0.00  0.00    +0.000 C 
ATOM     16  C   UNL     1       9.630 -26.976  19.673  0.00  0.00    +0.000 A 
ATOM     17  C   UNL     1      10.854 -26.554  20.032  0.00  0.00    +0.000 A 
ATOM     18  C   UNL     1      13.550 -28.955  24.173  0.00  0.00    +0.000 C 
ATOM     19  N   UNL     1      14.731 -28.286  23.972  0.00  0.00    +0.000 N 
ATOM     20  O   UNL     1      15.715 -26.987  22.364  0.00  0.00    +0.000 OA
ATOM     21  O   UNL     1      13.290 -29.609  25.155  0.00  0.00    +0.000 OA
ENDROOT
BRANCH  19  22
ATOM     22  C   UNL     1      15.830 -28.298  24.929  0.00  0.00    +0.000 C 
BRANCH  22  23
ATOM     23  C   UNL     1      15.427 -27.523  26.160  0.00  0.00    +0.000 C 
ATOM     24  C   UNL     1      15.406 -26.181  26.216  0.00  0.00    +0.000 C 
BRANCH  24  25
ATOM     25  C   UNL     1      15.052 -25.402  27.260  0.00  0.00    +0.000 A 
ATOM     26  C   UNL     1      14.677 -25.986  28.415  0.00  0.00    +0.000 A 
ATOM     27  C   UNL     1      14.315 -25.264  29.487  0.00  0.00    +0.000 A 
ATOM     28  C   UNL     1      14.286 -23.921  29.448  0.00  0.00    +0.000 A 
ATOM     29  C   UNL     1      14.693 -23.333  28.309  0.00  0.00    +0.000 A 
ATOM     30  C   UNL     1      15.056 -24.056  27.236  0.00  0.00    +0.000 A 
BRANCH  28  31
ATOM     31  C   UNL     1      13.937 -23.106  30.671  0.00  0.00    +0.000 C 
ATOM     32  F   UNL     1      12.623 -23.107  30.837  0.00  0.00    +0.000 F 
ATOM     33  F   UNL     1      14.316 -21.842  30.565  0.00  0.00    +0.000 F 
ATOM     34  F   UNL     1      14.472 -23.593  31.780  0.00  0.00    +0.000 F 
ENDBRANCH  28  31
ENDBRANCH  24  25
ENDBRANCH  22  23
ENDBRANCH  19  22
TORSDOF 4
ENDMDL
MODEL 13
REMARK VINA RESULT:      -7.3     28.385     30.435
REMARK  Name = Fragment
REMARK  4 active torsions:
REMARK  status: ('A' for Active; 'I' for Inactive)
REMARK    1  A    between atoms: N_19  and  C_22
REMARK    2  A    between atoms: C_22  and  C_23
REMARK    3  A    between atoms: C_24  and  C_25
REMARK    4  A    between atoms: C_28  and  C_31
REMARK                            x       y       z     vdW  Elec       q    Type
REMARK                         _______ _______ _______ _____ _____    ______ ____
ROOT
ATOM      1  C   UNL     1       7.340 -57.754  15.442  0.00  0.00    +0.000 A 
ATOM      2  C   UNL     1       6.899 -58.898  15.992  0.00  0.00    +0.000 A 
ATOM      3  C   UNL     1       5.715 -58.932  16.625  0.00  0.00    +0.000 A 
ATOM      4  C   UNL     1       4.979 -57.813  16.707  0.00  0.00    +0.000 A 
ATOM      5  C   UNL     1       5.421 -56.669  16.157  0.00  0.00    +0.000 A 
ATOM      6  C   UNL     1       6.602 -56.636  15.521  0.00  0.00    +0.000 A 
ATOM      7  C   UNL     1       3.623 -57.716  17.376  0.00  0.00    +0.000 C 
ATOM      8  C   UNL     1       3.755 -56.556  18.341  0.00  0.00    +0.000 A 
ATOM      9  C   UNL     1       4.197 -55.411  17.791  0.00  0.00    +0.000 A 
ATOM     10  C   UNL     1       4.482 -55.488  16.304  0.00  0.00    +0.000 C 
ATOM     11  C   UNL     1       2.641 -57.245  16.284  0.00  0.00    +0.000 C 
ATOM     12  C   UNL     1       3.156 -55.914  15.642  0.00  0.00    +0.000 C 
ATOM     13  C   UNL     1       3.462 -56.607  19.649  0.00  0.00    +0.000 A 
ATOM     14  C   UNL     1       3.615 -55.509  20.404  0.00  0.00    +0.000 A 
ATOM     15  C   UNL     1       3.307 -56.258  14.168  0.00  0.00    +0.000 C 
ATOM     16  C   UNL     1       4.057 -54.365  19.855  0.00  0.00    +0.000 A 
ATOM     17  C   UNL     1       4.348 -54.311  18.544  0.00  0.00    +0.000 A 
ATOM     18  C   UNL     1       2.554 -58.203  15.106  0.00  0.00    +0.000 C 
ATOM     19  N   UNL     1       2.961 -57.569  13.960  0.00  0.00    +0.000 N 
ATOM     20  O   UNL     1       3.685 -55.498  13.309  0.00  0.00    +0.000 OA
ATOM     21  O   UNL     1       2.191 -59.354  15.162  0.00  0.00    +0.000 OA
ENDROOT
BRANCH  19  22
ATOM     22  C   UNL     1       2.992 -58.218  12.654  0.00  0.00    +0.000 C 
BRANCH  22  23
ATOM     23  C   UNL     1       1.594 -58.257  12.086  0.00  0.00    +0.000 C 
ATOM     24  C   UNL     1       0.949 -57.169  11.631  0.00  0.00    +0.000 C 
BRANCH  24  25
ATOM     25  C   UNL     1      -0.289 -57.105  11.098  0.00  0.00    +0.000 A 
ATOM     26  C   UNL     1      -0.834 -55.898  10.849  0.00  0.00    +0.000 A 
ATOM     27  C   UNL     1      -2.060 -55.771  10.319  0.00  0.00    +0.000 A 
ATOM     28  C   UNL     1      -2.813 -56.847  10.034  0.00  0.00    +0.000 A 
ATOM     29  C   UNL     1      -2.261 -58.054  10.248  0.00  0.00    +0.000 A 
ATOM     30  C   UNL     1      -1.033 -58.181  10.778  0.00  0.00    +0.000 A 
BRANCH  28  31
ATOM     31  C   UNL     1      -4.169 -56.709   9.383  0.00  0.00    +0.000 C 
ATOM     32  F   UNL     1      -4.064 -56.986   8.092  0.00  0.00    +0.000 F 
ATOM     33  F   UNL     1      -4.658 -55.483   9.481  0.00  0.00    +0.000 F 
ATOM     34  F   UNL     1      -5.066 -57.540   9.889  0.00  0.00    +0.000 F 
ENDBRANCH  28  31
ENDBRANCH  24  25
ENDBRANCH  22  23
ENDBRANCH  19  22
TORSDOF 4
ENDMDL
MODEL 14
REMARK VINA RESULT:      -7.3     22.939     25.671
REMARK  Name = Fragment
REMARK  4 active torsions:
REMARK  status: ('A' for Active; 'I' for Inactive)
REMARK    1  A    between atoms: N_19  and  C_22
REMARK    2  A    between atoms: C_22  and  C_23
REMARK    3  A    between atoms: C_24  and  C_25
REMARK    4  A    between atoms: C_28  and  C_31
REMARK                            x       y       z     vdW  Elec       q    Type
REMARK                         _______ _______ _______ _____ _____    ______ ____
ROOT
ATOM      1  C   UNL     1      -2.450 -31.850  12.011  0.00  0.00    +0.000 A 
ATOM      2  C   UNL     1      -2.060 -31.962  13.292  0.00  0.00    +0.000 A 
ATOM      3  C   UNL     1      -2.708 -31.294  14.259  0.00  0.00    +0.000 A 
ATOM      4  C   UNL     1      -3.747 -30.509  13.935  0.00  0.00    +0.000 A 
ATOM      5  C   UNL     1      -4.138 -30.397  12.653  0.00  0.00    +0.000 A 
ATOM      6  C   UNL     1      -3.493 -31.069  11.688  0.00  0.00    +0.000 A 
ATOM      7  C   UNL     1      -4.575 -29.715  14.925  0.00  0.00    +0.000 C 
ATOM      8  C   UNL     1      -4.569 -28.302  14.379  0.00  0.00    +0.000 A 
ATOM      9  C   UNL     1      -4.961 -28.189  13.097  0.00  0.00    +0.000 A 
ATOM     10  C   UNL     1      -5.337 -29.497  12.430  0.00  0.00    +0.000 C 
ATOM     11  C   UNL     1      -6.024 -30.219  14.771  0.00  0.00    +0.000 C 
ATOM     12  C   UNL     1      -6.479 -30.091  13.279  0.00  0.00    +0.000 C 
ATOM     13  C   UNL     1      -4.220 -27.210  15.077  0.00  0.00    +0.000 A 
ATOM     14  C   UNL     1      -4.261 -26.007  14.484  0.00  0.00    +0.000 A 
ATOM     15  C   UNL     1      -6.837 -31.516  12.886  0.00  0.00    +0.000 C 
ATOM     16  C   UNL     1      -4.651 -25.895  13.204  0.00  0.00    +0.000 A 
ATOM     17  C   UNL     1      -5.005 -26.986  12.505  0.00  0.00    +0.000 A 
ATOM     18  C   UNL     1      -6.174 -31.704  15.068  0.00  0.00    +0.000 C 
ATOM     19  N   UNL     1      -6.621 -32.359  13.948  0.00  0.00    +0.000 N 
ATOM     20  O   UNL     1      -7.242 -31.861  11.802  0.00  0.00    +0.000 OA
ATOM     21  O   UNL     1      -5.928 -32.237  16.123  0.00  0.00    +0.000 OA
ENDROOT
BRANCH  19  22
ATOM     22  C   UNL     1      -6.869 -33.794  13.906  0.00  0.00    +0.000 C 
BRANCH  22  23
ATOM     23  C   UNL     1      -5.695 -34.482  13.252  0.00  0.00    +0.000 C 
ATOM     24  C   UNL     1      -4.796 -35.217  13.928  0.00  0.00    +0.000 C 
BRANCH  24  25
ATOM     25  C   UNL     1      -3.727 -35.876  13.434  0.00  0.00    +0.000 A 
ATOM     26  C   UNL     1      -3.345 -37.032  14.012  0.00  0.00    +0.000 A 
ATOM     27  C   UNL     1      -2.290 -37.731  13.565  0.00  0.00    +0.000 A 
ATOM     28  C   UNL     1      -1.551 -37.295  12.530  0.00  0.00    +0.000 A 
ATOM     29  C   UNL     1      -1.949 -36.162  11.928  0.00  0.00    +0.000 A 
ATOM     30  C   UNL     1      -3.005 -35.462  12.376  0.00  0.00    +0.000 A 
BRANCH  28  31
ATOM     31  C   UNL     1      -0.401 -38.110  11.987  0.00  0.00    +0.000 C 
ATOM     32  F   UNL     1      -0.166 -39.131  12.798  0.00  0.00    +0.000 F 
ATOM     33  F   UNL     1       0.721 -37.414  11.901  0.00  0.00    +0.000 F 
ATOM     34  F   UNL     1      -0.652 -38.614  10.789  0.00  0.00    +0.000 F 
ENDBRANCH  28  31
ENDBRANCH  24  25
ENDBRANCH  22  23
ENDBRANCH  19  22
TORSDOF 4
ENDMDL
MODEL 15
REMARK VINA RESULT:      -7.2     31.208     34.050
REMARK  Name = Fragment
REMARK  4 active torsions:
REMARK  status: ('A' for Active; 'I' for Inactive)
REMARK    1  A    between atoms: N_19  and  C_22
REMARK    2  A    between atoms: C_22  and  C_23
REMARK    3  A    between atoms: C_24  and  C_25
REMARK    4  A    between atoms: C_28  and  C_31
REMARK                            x       y       z     vdW  Elec       q    Type
REMARK                         _______ _______ _______ _____ _____    ______ ____
ROOT
ATOM      1  C   UNL     1      -9.429 -47.588  -5.157  0.00  0.00    +0.000 A 
ATOM      2  C   UNL     1     -10.033 -46.863  -4.200  0.00  0.00    +0.000 A 
ATOM      3  C   UNL     1      -9.899 -47.201  -2.908  0.00  0.00    +0.000 A 
ATOM      4  C   UNL     1      -9.159 -48.272  -2.580  0.00  0.00    +0.000 A 
ATOM      5  C   UNL     1      -8.555 -48.997  -3.537  0.00  0.00    +0.000 A 
ATOM      6  C   UNL     1      -8.686 -48.657  -4.828  0.00  0.00    +0.000 A 
ATOM      7  C   UNL     1      -8.912 -48.753  -1.164  0.00  0.00    +0.000 C 
ATOM      8  C   UNL     1      -9.294 -50.219  -1.188  0.00  0.00    +0.000 A 
ATOM      9  C   UNL     1      -8.688 -50.945  -2.145  0.00  0.00    +0.000 A 
ATOM     10  C   UNL     1      -7.735 -50.165  -3.028  0.00  0.00    +0.000 C 
ATOM     11  C   UNL     1      -7.384 -48.720  -0.963  0.00  0.00    +0.000 C 
ATOM     12  C   UNL     1      -6.679 -49.562  -2.078  0.00  0.00    +0.000 C 
ATOM     13  C   UNL     1     -10.154 -50.803  -0.341  0.00  0.00    +0.000 A 
ATOM     14  C   UNL     1     -10.409 -52.115  -0.457  0.00  0.00    +0.000 A 
ATOM     15  C   UNL     1      -5.762 -48.561  -2.763  0.00  0.00    +0.000 C 
ATOM     16  C   UNL     1      -9.805 -52.840  -1.414  0.00  0.00    +0.000 A 
ATOM     17  C   UNL     1      -8.940 -52.257  -2.261  0.00  0.00    +0.000 A 
ATOM     18  C   UNL     1      -6.790 -47.330  -1.132  0.00  0.00    +0.000 C 
ATOM     19  N   UNL     1      -5.899 -47.328  -2.176  0.00  0.00    +0.000 N 
ATOM     20  O   UNL     1      -5.028 -48.807  -3.691  0.00  0.00    +0.000 OA
ATOM     21  O   UNL     1      -7.062 -46.363  -0.461  0.00  0.00    +0.000 OA
ENDROOT
BRANCH  19  22
ATOM     22  C   UNL     1      -5.158 -46.145  -2.594  0.00  0.00    +0.000 C 
BRANCH  22  23
ATOM     23  C   UNL     1      -3.904 -46.024  -1.762  0.00  0.00    +0.000 C 
ATOM     24  C   UNL     1      -2.857 -46.860  -1.875  0.00  0.00    +0.000 C 
BRANCH  24  25
ATOM     25  C   UNL     1      -1.696 -46.827  -1.189  0.00  0.00    +0.000 A 
ATOM     26  C   UNL     1      -0.575 -46.415  -1.815  0.00  0.00    +0.000 A 
ATOM     27  C   UNL     1       0.608 -46.361  -1.185  0.00  0.00    +0.000 A 
ATOM     28  C   UNL     1       0.734 -46.740   0.099  0.00  0.00    +0.000 A 
ATOM     29  C   UNL     1      -0.387 -47.118   0.738  0.00  0.00    +0.000 A 
ATOM     30  C   UNL     1      -1.571 -47.172   0.107  0.00  0.00    +0.000 A 
BRANCH  28  31
ATOM     31  C   UNL     1       2.052 -46.623   0.828  0.00  0.00    +0.000 C 
ATOM     32  F   UNL     1       1.847 -46.769   2.129  0.00  0.00    +0.000 F 
ATOM     33  F   UNL     1       2.628 -45.445   0.653  0.00  0.00    +0.000 F 
ATOM     34  F   UNL     1       2.922 -47.553   0.463  0.00  0.00    +0.000 F 
ENDBRANCH  28  31
ENDBRANCH  24  25
ENDBRANCH  22  23
ENDBRANCH  19  22
TORSDOF 4
ENDMDL
MODEL 16
REMARK VINA RESULT:      -7.0     44.287     46.449
REMARK  Name = Fragment
REMARK  4 active torsions:
REMARK  status: ('A' for Active; 'I' for Inactive)
REMARK    1  A    between atoms: N_19  and  C_22
REMARK    2  A    between atoms: C_22  and  C_23
REMARK    3  A    between atoms: C_24  and  C_25
REMARK    4  A    between atoms: C_28  and  C_31
REMARK                            x       y       z     vdW  Elec       q    Type
REMARK                         _______ _______ _______ _____ _____    ______ ____
ROOT
ATOM      1  C   UNL     1      22.529 -46.453  34.864  0.00  0.00    +0.000 A 
ATOM      2  C   UNL     1      21.705 -47.513  34.854  0.00  0.00    +0.000 A 
ATOM      3  C   UNL     1      21.990 -48.586  34.099  0.00  0.00    +0.000 A 
ATOM      4  C   UNL     1      23.104 -48.588  33.351  0.00  0.00    +0.000 A 
ATOM      5  C   UNL     1      23.929 -47.527  33.361  0.00  0.00    +0.000 A 
ATOM      6  C   UNL     1      23.646 -46.457  34.119  0.00  0.00    +0.000 A 
ATOM      7  C   UNL     1      23.553 -49.736  32.469  0.00  0.00    +0.000 C 
ATOM      8  C   UNL     1      23.792 -49.104  31.113  0.00  0.00    +0.000 A 
ATOM      9  C   UNL     1      24.619 -48.042  31.123  0.00  0.00    +0.000 A 
ATOM     10  C   UNL     1      25.160 -47.670  32.489  0.00  0.00    +0.000 C 
ATOM     11  C   UNL     1      24.942 -50.156  32.989  0.00  0.00    +0.000 C 
ATOM     12  C   UNL     1      25.903 -48.920  33.003  0.00  0.00    +0.000 C 
ATOM     13  C   UNL     1      23.257 -49.532  29.961  0.00  0.00    +0.000 A 
ATOM     14  C   UNL     1      23.549 -48.891  28.818  0.00  0.00    +0.000 A 
ATOM     15  C   UNL     1      26.327 -48.807  34.459  0.00  0.00    +0.000 C 
ATOM     16  C   UNL     1      24.374 -47.831  28.828  0.00  0.00    +0.000 A 
ATOM     17  C   UNL     1      24.914 -47.403  29.981  0.00  0.00    +0.000 A 
ATOM     18  C   UNL     1      24.923 -50.614  34.439  0.00  0.00    +0.000 C 
ATOM     19  N   UNL     1      25.716 -49.790  35.198  0.00  0.00    +0.000 N 
ATOM     20  O   UNL     1      27.078 -47.973  34.905  0.00  0.00    +0.000 OA
ATOM     21  O   UNL     1      24.299 -51.553  34.871  0.00  0.00    +0.000 OA
ENDROOT
BRANCH  19  22
ATOM     22  C   UNL     1      25.911 -49.964  36.632  0.00  0.00    +0.000 C 
BRANCH  22  23
ATOM     23  C   UNL     1      24.914 -49.110  37.376  0.00  0.00    +0.000 C 
ATOM     24  C   UNL     1      23.606 -49.405  37.464  0.00  0.00    +0.000 C 
BRANCH  24  25
ATOM     25  C   UNL     1      22.644 -48.714  38.112  0.00  0.00    +0.000 A 
ATOM     26  C   UNL     1      22.911 -47.465  38.542  0.00  0.00    +0.000 A 
ATOM     27  C   UNL     1      21.995 -46.729  39.191  0.00  0.00    +0.000 A 
ATOM     28  C   UNL     1      20.773 -47.218  39.464  0.00  0.00    +0.000 A 
ATOM     29  C   UNL     1      20.490 -48.450  39.007  0.00  0.00    +0.000 A 
ATOM     30  C   UNL     1      21.407 -49.185  38.357  0.00  0.00    +0.000 A 
BRANCH  28  31
ATOM     31  C   UNL     1      19.721 -46.371  40.141  0.00  0.00    +0.000 C 
ATOM     32  F   UNL     1      20.290 -45.288  40.648  0.00  0.00    +0.000 F 
ATOM     33  F   UNL     1      19.124 -47.002  41.139  0.00  0.00    +0.000 F 
ATOM     34  F   UNL     1      18.779 -45.961  39.305  0.00  0.00    +0.000 F 
ENDBRANCH  28  31
ENDBRANCH  24  25
ENDBRANCH  22  23
ENDBRANCH  19  22
TORSDOF 4
ENDMDL
MODEL 17
REMARK VINA RESULT:      -7.0     31.400     33.982
REMARK  Name = Fragment
REMARK  4 active torsions:
REMARK  status: ('A' for Active; 'I' for Inactive)
REMARK    1  A    between atoms: N_19  and  C_22
REMARK    2  A    between atoms: C_22  and  C_23
REMARK    3  A    between atoms: C_24  and  C_25
REMARK    4  A    between atoms: C_28  and  C_31
REMARK                            x       y       z     vdW  Elec       q    Type
REMARK                         _______ _______ _______ _____ _____    ______ ____
ROOT
ATOM      1  C   UNL     1       6.612 -59.196  14.069  0.00  0.00    +0.000 A 
ATOM      2  C   UNL     1       7.208 -58.003  14.230  0.00  0.00    +0.000 A 
ATOM      3  C   UNL     1       6.472 -56.900  14.439  0.00  0.00    +0.000 A 
ATOM      4  C   UNL     1       5.134 -56.999  14.481  0.00  0.00    +0.000 A 
ATOM      5  C   UNL     1       4.537 -58.193  14.320  0.00  0.00    +0.000 A 
ATOM      6  C   UNL     1       5.274 -59.296  14.115  0.00  0.00    +0.000 A 
ATOM      7  C   UNL     1       4.187 -55.841  14.725  0.00  0.00    +0.000 C 
ATOM      8  C   UNL     1       3.199 -55.909  13.579  0.00  0.00    +0.000 A 
ATOM      9  C   UNL     1       2.601 -57.103  13.418  0.00  0.00    +0.000 A 
ATOM     10  C   UNL     1       3.025 -58.166  14.412  0.00  0.00    +0.000 C 
ATOM     11  C   UNL     1       3.387 -56.204  15.992  0.00  0.00    +0.000 C 
ATOM     12  C   UNL     1       2.693 -57.595  15.806  0.00  0.00    +0.000 C 
ATOM     13  C   UNL     1       2.898 -54.888  12.763  0.00  0.00    +0.000 A 
ATOM     14  C   UNL     1       1.999 -55.068  11.783  0.00  0.00    +0.000 A 
ATOM     15  C   UNL     1       3.254 -58.434  16.944  0.00  0.00    +0.000 C 
ATOM     16  C   UNL     1       1.403 -56.261  11.622  0.00  0.00    +0.000 A 
ATOM     17  C   UNL     1       1.700 -57.284  12.441  0.00  0.00    +0.000 A 
ATOM     18  C   UNL     1       4.266 -56.401  17.218  0.00  0.00    +0.000 C 
ATOM     19  N   UNL     1       4.141 -57.688  17.678  0.00  0.00    +0.000 N 
ATOM     20  O   UNL     1       2.971 -59.587  17.166  0.00  0.00    +0.000 OA
ATOM     21  O   UNL     1       4.979 -55.562  17.713  0.00  0.00    +0.000 OA
ENDROOT
BRANCH  19  22
ATOM     22  C   UNL     1       4.855 -58.193  18.844  0.00  0.00    +0.000 C 
BRANCH  22  23
ATOM     23  C   UNL     1       6.061 -58.977  18.387  0.00  0.00    +0.000 C 
ATOM     24  C   UNL     1       7.155 -58.408  17.852  0.00  0.00    +0.000 C 
BRANCH  24  25
ATOM     25  C   UNL     1       8.281 -59.019  17.427  0.00  0.00    +0.000 A 
ATOM     26  C   UNL     1       8.331 -60.366  17.414  0.00  0.00    +0.000 A 
ATOM     27  C   UNL     1       9.422 -61.029  17.001  0.00  0.00    +0.000 A 
ATOM     28  C   UNL     1      10.528 -60.377  16.603  0.00  0.00    +0.000 A 
ATOM     29  C   UNL     1      10.471 -59.034  16.581  0.00  0.00    +0.000 A 
ATOM     30  C   UNL     1       9.378 -58.370  16.994  0.00  0.00    +0.000 A 
BRANCH  28  31
ATOM     31  C   UNL     1      11.735 -61.120  16.081  0.00  0.00    +0.000 C 
ATOM     32  F   UNL     1      11.398 -61.792  14.991  0.00  0.00    +0.000 F 
ATOM     33  F   UNL     1      12.208 -61.998  16.951  0.00  0.00    +0.000 F 
ATOM     34  F   UNL     1      12.729 -60.311  15.749  0.00  0.00    +0.000 F 
ENDBRANCH  28  31
ENDBRANCH  24  25
ENDBRANCH  22  23
ENDBRANCH  19  22
TORSDOF 4
ENDMDL
MODEL 18
REMARK VINA RESULT:      -6.5     20.127     23.906
REMARK  Name = Fragment
REMARK  4 active torsions:
REMARK  status: ('A' for Active; 'I' for Inactive)
REMARK    1  A    between atoms: N_19  and  C_22
REMARK    2  A    between atoms: C_22  and  C_23
REMARK    3  A    between atoms: C_24  and  C_25
REMARK    4  A    between atoms: C_28  and  C_31
REMARK                            x       y       z     vdW  Elec       q    Type
REMARK                         _______ _______ _______ _____ _____    ______ ____
ROOT
ATOM      1  C   UNL     1     -10.003 -33.797  10.646  0.00  0.00    +0.000 A 
ATOM      2  C   UNL     1      -9.605 -32.526  10.818  0.00  0.00    +0.000 A 
ATOM      3  C   UNL     1      -9.015 -32.149  11.964  0.00  0.00    +0.000 A 
ATOM      4  C   UNL     1      -8.831 -33.054  12.938  0.00  0.00    +0.000 A 
ATOM      5  C   UNL     1      -9.230 -34.326  12.767  0.00  0.00    +0.000 A 
ATOM      6  C   UNL     1      -9.815 -34.703  11.619  0.00  0.00    +0.000 A 
ATOM      7  C   UNL     1      -8.167 -32.769  14.271  0.00  0.00    +0.000 C 
ATOM      8  C   UNL     1      -9.154 -33.272  15.304  0.00  0.00    +0.000 A 
ATOM      9  C   UNL     1      -9.552 -34.545  15.133  0.00  0.00    +0.000 A 
ATOM     10  C   UNL     1      -8.943 -35.247  13.936  0.00  0.00    +0.000 C 
ATOM     11  C   UNL     1      -6.952 -33.716  14.353  0.00  0.00    +0.000 C 
ATOM     12  C   UNL     1      -7.416 -35.197  14.151  0.00  0.00    +0.000 C 
ATOM     13  C   UNL     1      -9.620 -32.551  16.335  0.00  0.00    +0.000 A 
ATOM     14  C   UNL     1     -10.490 -33.109  17.191  0.00  0.00    +0.000 A 
ATOM     15  C   UNL     1      -6.626 -35.662  12.937  0.00  0.00    +0.000 C 
ATOM     16  C   UNL     1     -10.889 -34.381  17.019  0.00  0.00    +0.000 A 
ATOM     17  C   UNL     1     -10.419 -35.105  15.990  0.00  0.00    +0.000 A 
ATOM     18  C   UNL     1      -5.947 -33.497  13.233  0.00  0.00    +0.000 C 
ATOM     19  N   UNL     1      -5.837 -34.637  12.476  0.00  0.00    +0.000 N 
ATOM     20  O   UNL     1      -6.688 -36.761  12.442  0.00  0.00    +0.000 OA
ATOM     21  O   UNL     1      -5.340 -32.474  13.024  0.00  0.00    +0.000 OA
ENDROOT
BRANCH  19  22
ATOM     22  C   UNL     1      -4.951 -34.751  11.325  0.00  0.00    +0.000 C 
BRANCH  22  23
ATOM     23  C   UNL     1      -5.779 -34.943  10.078  0.00  0.00    +0.000 C 
ATOM     24  C   UNL     1      -6.305 -33.927   9.374  0.00  0.00    +0.000 C 
BRANCH  24  25
ATOM     25  C   UNL     1      -7.045 -33.997   8.247  0.00  0.00    +0.000 A 
ATOM     26  C   UNL     1      -6.677 -33.268   7.175  0.00  0.00    +0.000 A 
ATOM     27  C   UNL     1      -7.372 -33.297   6.028  0.00  0.00    +0.000 A 
ATOM     28  C   UNL     1      -8.486 -34.039   5.904  0.00  0.00    +0.000 A 
ATOM     29  C   UNL     1      -8.837 -34.796   6.958  0.00  0.00    +0.000 A 
ATOM     30  C   UNL     1      -8.141 -34.766   8.107  0.00  0.00    +0.000 A 
BRANCH  28  31
ATOM     31  C   UNL     1      -9.236 -34.120   4.595  0.00  0.00    +0.000 C 
ATOM     32  F   UNL     1      -8.788 -35.153   3.897  0.00  0.00    +0.000 F 
ATOM     33  F   UNL     1      -9.071 -33.042   3.846  0.00  0.00    +0.000 F 
ATOM     34  F   UNL     1     -10.537 -34.297   4.762  0.00  0.00    +0.000 F 
ENDBRANCH  28  31
ENDBRANCH  24  25
ENDBRANCH  22  23
ENDBRANCH  19  22
TORSDOF 4
ENDMDL
MODEL 19
REMARK VINA RESULT:      -6.3     15.061     16.906
REMARK  Name = Fragment
REMARK  4 active torsions:
REMARK  status: ('A' for Active; 'I' for Inactive)
REMARK    1  A    between atoms: N_19  and  C_22
REMARK    2  A    between atoms: C_22  and  C_23
REMARK    3  A    between atoms: C_24  and  C_25
REMARK    4  A    between atoms: C_28  and  C_31
REMARK                            x       y       z     vdW  Elec       q    Type
REMARK                         _______ _______ _______ _____ _____    ______ ____
ROOT
ATOM      1  C   UNL     1     -19.653 -39.747  42.561  0.00  0.00    +0.000 A 
ATOM      2  C   UNL     1     -19.395 -39.919  41.253  0.00  0.00    +0.000 A 
ATOM      3  C   UNL     1     -19.269 -41.155  40.744  0.00  0.00    +0.000 A 
ATOM      4  C   UNL     1     -19.400 -42.217  41.553  0.00  0.00    +0.000 A 
ATOM      5  C   UNL     1     -19.658 -42.045  42.861  0.00  0.00    +0.000 A 
ATOM      6  C   UNL     1     -19.788 -40.810  43.369  0.00  0.00    +0.000 A 
ATOM      7  C   UNL     1     -19.299 -43.662  41.108  0.00  0.00    +0.000 C 
ATOM      8  C   UNL     1     -18.280 -44.279  42.044  0.00  0.00    +0.000 A 
ATOM      9  C   UNL     1     -18.539 -44.108  43.353  0.00  0.00    +0.000 A 
ATOM     10  C   UNL     1     -19.803 -43.328  43.656  0.00  0.00    +0.000 C 
ATOM     11  C   UNL     1     -20.649 -44.315  41.468  0.00  0.00    +0.000 C 
ATOM     12  C   UNL     1     -20.951 -44.113  42.990  0.00  0.00    +0.000 C 
ATOM     13  C   UNL     1     -17.192 -44.960  41.655  0.00  0.00    +0.000 A 
ATOM     14  C   UNL     1     -16.363 -45.467  42.580  0.00  0.00    +0.000 A 
ATOM     15  C   UNL     1     -22.274 -43.362  43.000  0.00  0.00    +0.000 C 
ATOM     16  C   UNL     1     -16.621 -45.295  43.888  0.00  0.00    +0.000 A 
ATOM     17  C   UNL     1     -17.712 -44.616  44.279  0.00  0.00    +0.000 A 
ATOM     18  C   UNL     1     -21.833 -43.657  40.775  0.00  0.00    +0.000 C 
ATOM     19  N   UNL     1     -22.689 -43.134  41.712  0.00  0.00    +0.000 N 
ATOM     20  O   UNL     1     -22.868 -43.007  43.990  0.00  0.00    +0.000 OA
ATOM     21  O   UNL     1     -21.999 -43.590  39.581  0.00  0.00    +0.000 OA
ENDROOT
BRANCH  19  22
ATOM     22  C   UNL     1     -23.923 -42.439  41.369  0.00  0.00    +0.000 C 
BRANCH  22  23
ATOM     23  C   UNL     1     -23.776 -40.974  41.700  0.00  0.00    +0.000 C 
ATOM     24  C   UNL     1     -23.036 -40.120  40.972  0.00  0.00    +0.000 C 
BRANCH  24  25
ATOM     25  C   UNL     1     -22.853 -38.799  41.179  0.00  0.00    +0.000 A 
ATOM     26  C   UNL     1     -23.001 -38.305  42.424  0.00  0.00    +0.000 A 
ATOM     27  C   UNL     1     -22.833 -37.001  42.692  0.00  0.00    +0.000 A 
ATOM     28  C   UNL     1     -22.530 -36.122  41.721  0.00  0.00    +0.000 A 
ATOM     29  C   UNL     1     -22.346 -36.615  40.484  0.00  0.00    +0.000 A 
ATOM     30  C   UNL     1     -22.515 -37.921  40.217  0.00  0.00    +0.000 A 
BRANCH  28  31
ATOM     31  C   UNL     1     -22.280 -34.664  42.030  0.00  0.00    +0.000 C 
ATOM     32  F   UNL     1     -23.336 -34.161  42.651  0.00  0.00    +0.000 F 
ATOM     33  F   UNL     1     -22.086 -33.939  40.940  0.00  0.00    +0.000 F 
ATOM     34  F   UNL     1     -21.236 -34.481  42.824  0.00  0.00    +0.000 F 
ENDBRANCH  28  31
ENDBRANCH  24  25
ENDBRANCH  22  23
ENDBRANCH  19  22
TORSDOF 4
ENDMDL
MODEL 20
REMARK VINA RESULT:      -6.3     36.183     40.256
REMARK  Name = Fragment
REMARK  4 active torsions:
REMARK  status: ('A' for Active; 'I' for Inactive)
REMARK    1  A    between atoms: N_19  and  C_22
REMARK    2  A    between atoms: C_22  and  C_23
REMARK    3  A    between atoms: C_24  and  C_25
REMARK    4  A    between atoms: C_28  and  C_31
REMARK                            x       y       z     vdW  Elec       q    Type
REMARK                         _______ _______ _______ _____ _____    ______ ____
ROOT
ATOM      1  C   UNL     1      12.020 -24.796  24.744  0.00  0.00    +0.000 A 
ATOM      2  C   UNL     1      12.806 -24.044  23.956  0.00  0.00    +0.000 A 
ATOM      3  C   UNL     1      14.016 -23.649  24.385  0.00  0.00    +0.000 A 
ATOM      4  C   UNL     1      14.430 -24.008  25.610  0.00  0.00    +0.000 A 
ATOM      5  C   UNL     1      13.643 -24.761  26.399  0.00  0.00    +0.000 A 
ATOM      6  C   UNL     1      12.436 -25.159  25.968  0.00  0.00    +0.000 A 
ATOM      7  C   UNL     1      15.773 -23.646  26.211  0.00  0.00    +0.000 C 
ATOM      8  C   UNL     1      15.437 -23.026  27.551  0.00  0.00    +0.000 A 
ATOM      9  C   UNL     1      14.650 -23.779  28.341  0.00  0.00    +0.000 A 
ATOM     10  C   UNL     1      14.241 -25.112  27.746  0.00  0.00    +0.000 C 
ATOM     11  C   UNL     1      16.473 -24.983  26.529  0.00  0.00    +0.000 C 
ATOM     12  C   UNL     1      15.556 -25.860  27.446  0.00  0.00    +0.000 C 
ATOM     13  C   UNL     1      15.869 -21.829  27.974  0.00  0.00    +0.000 A 
ATOM     14  C   UNL     1      15.508 -21.387  29.189  0.00  0.00    +0.000 A 
ATOM     15  C   UNL     1      15.349 -27.133  26.638  0.00  0.00    +0.000 C 
ATOM     16  C   UNL     1      14.721 -22.139  29.977  0.00  0.00    +0.000 A 
ATOM     17  C   UNL     1      14.290 -23.340  29.556  0.00  0.00    +0.000 A 
ATOM     18  C   UNL     1      16.690 -25.851  25.299  0.00  0.00    +0.000 C 
ATOM     19  N   UNL     1      16.009 -27.034  25.439  0.00  0.00    +0.000 N 
ATOM     20  O   UNL     1      14.693 -28.084  26.990  0.00  0.00    +0.000 OA
ATOM     21  O   UNL     1      17.350 -25.550  24.334  0.00  0.00    +0.000 OA
ENDROOT
BRANCH  19  22
ATOM     22  C   UNL     1      16.016 -28.086  24.430  0.00  0.00    +0.000 C 
BRANCH  22  23
ATOM     23  C   UNL     1      14.647 -28.183  23.802  0.00  0.00    +0.000 C 
ATOM     24  C   UNL     1      14.167 -27.281  22.929  0.00  0.00    +0.000 C 
BRANCH  24  25
ATOM     25  C   UNL     1      12.968 -27.286  22.309  0.00  0.00    +0.000 A 
ATOM     26  C   UNL     1      11.984 -28.069  22.793  0.00  0.00    +0.000 A 
ATOM     27  C   UNL     1      10.771 -28.116  22.221  0.00  0.00    +0.000 A 
ATOM     28  C   UNL     1      10.491 -27.399  21.119  0.00  0.00    +0.000 A 
ATOM     29  C   UNL     1      11.458 -26.590  20.653  0.00  0.00    +0.000 A 
ATOM     30  C   UNL     1      12.672 -26.543  21.226  0.00  0.00    +0.000 A 
BRANCH  28  31
ATOM     31  C   UNL     1       9.109 -27.404  20.508  0.00  0.00    +0.000 C 
ATOM     32  F   UNL     1       9.214 -27.356  19.189  0.00  0.00    +0.000 F 
ATOM     33  F   UNL     1       8.384 -26.362  20.880  0.00  0.00    +0.000 F 
ATOM     34  F   UNL     1       8.423 -28.496  20.806  0.00  0.00    +0.000 F 
ENDBRANCH  28  31
ENDBRANCH  24  25
ENDBRANCH  22  23
ENDBRANCH  19  22
TORSDOF 4
ENDMDL
