REMARK  Name = Fragment
REMARK  5 active torsions:
REMARK  status: ('A' for Active; 'I' for Inactive)
REMARK    1  A    between atoms: C_5  and  C_9
REMARK    2  A    between atoms: C_6  and  O_7
REMARK    3  A    between atoms: O_7  and  C_8
REMARK    4  A    between atoms: C_9  and  C_10
REMARK    5  A    between atoms: C_11  and  C_12
REMARK                            x       y       z     vdW  Elec       q    Type
REMARK                         _______ _______ _______ _____ _____    ______ ____
ROOT
ATOM     12  C   UNL     1       1.280   0.861  -0.667  0.00  0.00    +0.000 A 
ATOM     14  C   UNL     1       0.219   1.485  -0.115  0.00  0.00    +0.000 A 
ATOM     15  C   UNL     1       0.245   2.717   0.446  0.00  0.00    +0.000 A 
ATOM     16  C   UNL     1       1.428   3.369   0.411  0.00  0.00    +0.000 A 
ATOM     17  C   UNL     1       2.501   2.769  -0.134  0.00  0.00    +0.000 A 
ATOM     18  C   UNL     1       2.439   1.541  -0.663  0.00  0.00    +0.000 A 
ATOM     19  C   UNL     1      -0.901   3.231   0.961  0.00  0.00    +0.000 A 
ATOM     20  C   UNL     1      -2.003   3.050   0.193  0.00  0.00    +0.000 A 
ATOM     21  C   UNL     1      -3.215   3.531   0.501  0.00  0.00    +0.000 A 
ATOM     22  C   UNL     1      -3.367   4.226   1.631  0.00  0.00    +0.000 A 
ATOM     23  C   UNL     1      -2.298   4.399   2.417  0.00  0.00    +0.000 A 
ATOM     24  C   UNL     1      -1.069   3.921   2.120  0.00  0.00    +0.000 A 
ATOM     25  C   UNL     1       1.620   4.785   0.901  0.00  0.00    +0.000 C 
ATOM     26  C   UNL     1      -0.075   4.148   3.262  0.00  0.00    +0.000 C 
ATOM     27  C   UNL     1       2.136   4.670   2.303  0.00  0.00    +0.000 C 
ATOM     28  C   UNL     1       1.392   3.717   3.198  0.00  0.00    +0.000 C 
ATOM     29  C   UNL     1       2.055   3.793   4.556  0.00  0.00    +0.000 C 
ATOM     30  N   UNL     1       3.049   4.512   4.860  0.00  0.00    +0.000 NA
ATOM     31  N   UNL     1       3.536   5.233   3.986  0.00  0.00    +0.000 N 
ATOM     32  C   UNL     1       3.174   5.369   2.779  0.00  0.00    +0.000 C 
ATOM     33  H   UNL     1       4.352   5.793   4.335  0.00  0.00    +0.000 HD
ENDROOT
BRANCH  12  11
ATOM     10  C   UNL     1       2.071  -1.171  -1.728  0.00  0.00    +0.000 C 
ATOM     11  C   UNL     1       1.129  -0.379  -1.184  0.00  0.00    +0.000 C 
BRANCH  10   9
ATOM      9  C   UNL     1       1.919  -2.423  -2.260  0.00  0.00    +0.000 C 
ATOM     13  O   UNL     1       2.947  -3.076  -2.331  0.00  0.00    +0.000 OA
BRANCH   9   5
ATOM      1  C   UNL     1      -1.422  -2.948  -3.536  0.00  0.00    +0.000 A 
ATOM      2  C   UNL     1      -1.515  -4.282  -3.468  0.00  0.00    +0.000 A 
ATOM      3  C   UNL     1      -0.457  -4.981  -3.049  0.00  0.00    +0.000 A 
ATOM      4  C   UNL     1       0.651  -4.323  -2.681  0.00  0.00    +0.000 A 
ATOM      5  C   UNL     1       0.733  -2.973  -2.684  0.00  0.00    +0.000 A 
ATOM      6  C   UNL     1      -0.329  -2.257  -3.145  0.00  0.00    +0.000 A 
BRANCH   6   7
ATOM      7  O   UNL     1      -0.241  -0.900  -3.360  0.00  0.00    +0.000 OA
ATOM      8  C   UNL     1      -0.964  -0.321  -4.423  0.00  0.00    +0.000 C 
ENDBRANCH   6   7
ENDBRANCH   9   5
ENDBRANCH  10   9
ENDBRANCH  12  11
TORSDOF 4
