REMARK  Name = Fragment
REMARK  5 active torsions:
REMARK  status: ('A' for Active; 'I' for Inactive)
REMARK    1  A    between atoms: C_3  and  C_17
REMARK    2  A    between atoms: C_5  and  C_7
REMARK    3  A    between atoms: C_7  and  C_8
REMARK    4  A    between atoms: C_9  and  C_10
REMARK    5  A    between atoms: C_13  and  C_21
REMARK                            x       y       z     vdW  Elec       q    Type
REMARK                         _______ _______ _______ _____ _____    ______ ____
ROOT
ATOM      7  C   UNL     1       0.472  -1.611   0.000  0.00  0.00    +0.000 C 
ATOM     16  O   UNL     1       1.545  -2.187   0.000  0.00  0.00    +0.000 OA
ENDROOT
BRANCH   7   5
ATOM      1  C   UNL     1      -3.039  -2.557   0.000  0.00  0.00    +0.000 A 
ATOM      2  C   UNL     1      -2.946  -3.892   0.000  0.00  0.00    +0.000 A 
ATOM      3  C   UNL     1      -1.738  -4.478   0.000  0.00  0.00    +0.000 A 
ATOM      4  C   UNL     1      -0.648  -3.687   0.000  0.00  0.00    +0.000 A 
ATOM      5  C   UNL     1      -0.698  -2.336   0.000  0.00  0.00    +0.000 A 
ATOM      6  C   UNL     1      -1.934  -1.794   0.000  0.00  0.00    +0.000 A 
BRANCH   3  17
ATOM     17  C   UNL     1      -1.585  -5.983   0.000  0.00  0.00    +0.000 C 
ATOM     18  F   UNL     1      -2.737  -6.633   0.001  0.00  0.00    +0.000 F 
ATOM     19  F   UNL     1      -0.904  -6.378  -1.065  0.00  0.00    +0.000 F 
ATOM     20  F   UNL     1      -0.903  -6.378   1.065  0.00  0.00    +0.000 F 
ENDBRANCH   3  17
ENDBRANCH   7   5
BRANCH   7   8
ATOM      8  C   UNL     1       0.464  -0.242   0.000  0.00  0.00    +0.000 C 
ATOM      9  C   UNL     1       1.574   0.527  -0.000  0.00  0.00    +0.000 C 
BRANCH   9  10
ATOM     10  C   UNL     1       1.649   1.877  -0.000  0.00  0.00    +0.000 A 
ATOM     11  C   UNL     1       2.864   2.463  -0.000  0.00  0.00    +0.000 A 
ATOM     12  C   UNL     1       3.016   3.797  -0.000  0.00  0.00    +0.000 A 
ATOM     13  C   UNL     1       1.951   4.615  -0.000  0.00  0.00    +0.000 A 
ATOM     14  C   UNL     1       0.736   4.043  -0.000  0.00  0.00    +0.000 A 
ATOM     15  C   UNL     1       0.588   2.708  -0.000  0.00  0.00    +0.000 A 
BRANCH  13  21
ATOM     21  C   UNL     1       2.083   6.120  -0.000  0.00  0.00    +0.000 C 
ATOM     22  F   UNL     1       3.336   6.545   0.001  0.00  0.00    +0.000 F 
ATOM     23  F   UNL     1       1.485   6.633  -1.065  0.00  0.00    +0.000 F 
ATOM     24  F   UNL     1       1.484   6.633   1.063  0.00  0.00    +0.000 F 
ENDBRANCH  13  21
ENDBRANCH   9  10
ENDBRANCH   7   8
TORSDOF 5
