REMARK  Name = Fragment
REMARK  5 active torsions:
REMARK  status: ('A' for Active; 'I' for Inactive)
REMARK    1  A    between atoms: C_4  and  O_25
REMARK    2  A    between atoms: C_5  and  C_7
REMARK    3  A    between atoms: C_7  and  C_8
REMARK    4  A    between atoms: C_9  and  C_10
REMARK    5  A    between atoms: C_13  and  C_18
REMARK                            x       y       z     vdW  Elec       q    Type
REMARK                         _______ _______ _______ _____ _____    ______ ____
ROOT
ATOM      8  C   UNL     1       0.613  -0.763  -0.218  0.00  0.00    +0.000 C 
ATOM      9  C   UNL     1       1.599   0.159  -0.186  0.00  0.00    +0.000 C 
ENDROOT
BRANCH   9  10
ATOM     10  C   UNL     1       1.479   1.507  -0.201  0.00  0.00    +0.000 A 
ATOM     11  C   UNL     1       2.597   2.261  -0.164  0.00  0.00    +0.000 A 
ATOM     12  C   UNL     1       2.555   3.602  -0.175  0.00  0.00    +0.000 A 
ATOM     13  C   UNL     1       1.385   4.263  -0.201  0.00  0.00    +0.000 A 
ATOM     14  C   UNL     1       0.268   3.521  -0.274  0.00  0.00    +0.000 A 
ATOM     15  C   UNL     1       0.312   2.179  -0.263  0.00  0.00    +0.000 A 
BRANCH  13  17
ATOM     17  C   UNL     1       1.334   5.772  -0.274  0.00  0.00    +0.000 C 
ATOM     18  F   UNL     1       2.417   6.294  -0.829  0.00  0.00    +0.000 F 
ATOM     19  F   UNL     1       0.285   6.212  -0.951  0.00  0.00    +0.000 F 
ATOM     20  F   UNL     1       1.244   6.266   0.951  0.00  0.00    +0.000 F 
ENDBRANCH  13  17
ENDBRANCH   9  10
BRANCH   8   7
ATOM      7  C   UNL     1       0.814  -2.120  -0.202  0.00  0.00    +0.000 C 
ATOM     16  O   UNL     1       1.964  -2.507  -0.160  0.00  0.00    +0.000 OA
BRANCH   7   5
ATOM      1  C   UNL     1      -2.560  -3.467  -0.267  0.00  0.00    +0.000 A 
ATOM      2  C   UNL     1      -2.337  -4.783  -0.273  0.00  0.00    +0.000 A 
ATOM      3  C   UNL     1      -1.068  -5.204  -0.259  0.00  0.00    +0.000 A 
ATOM      4  C   UNL     1      -0.012  -4.367  -0.229  0.00  0.00    +0.000 A 
ATOM      5  C   UNL     1      -0.229  -3.021  -0.229  0.00  0.00    +0.000 A 
ATOM      6  C   UNL     1      -1.521  -2.619  -0.246  0.00  0.00    +0.000 A 
BRANCH   4  21
ATOM     21  O   UNL     1       1.207  -4.985  -0.238  0.00  0.00    +0.000 OA
ATOM     22  H   UNL     1       1.955  -4.429  -0.485  0.00  0.00    +0.000 HD
ENDBRANCH   4  21
ENDBRANCH   7   5
ENDBRANCH   8   7
TORSDOF 5
