REMARK  Name = Fragment
REMARK  1 active torsions:
REMARK  status: ('A' for Active; 'I' for Inactive)
REMARK    1  A    between atoms: C_7  and  N_15
REMARK                            x       y       z     vdW  Elec       q    Type
REMARK                         _______ _______ _______ _____ _____    ______ ____
ROOT
ATOM      1  C   UNL     1      -3.524   1.027   0.013  0.00  0.00    +0.000 C 
ATOM      2  C   UNL     1      -3.583  -0.500   0.100  0.00  0.00    +0.000 C 
ATOM      3  C   UNL     1      -2.420  -1.106  -0.696  0.00  0.00    +0.000 C 
ATOM      4  C   UNL     1      -1.083  -0.440  -0.435  0.00  0.00    +0.000 A 
ATOM      5  C   UNL     1      -1.018   0.746   0.199  0.00  0.00    +0.000 A 
ATOM      6  C   UNL     1      -2.232   1.504   0.684  0.00  0.00    +0.000 C 
ATOM      7  C   UNL     1       0.078  -0.998  -0.830  0.00  0.00    +0.000 A 
ATOM      8  C   UNL     1       1.239  -0.365  -0.566  0.00  0.00    +0.000 A 
ATOM      9  C   UNL     1       1.180   0.817   0.082  0.00  0.00    +0.000 A 
ATOM     10  N   UNL     1       0.079   1.331   0.437  0.00  0.00    +0.000 NA
ATOM     11  C   UNL     1       2.450  -0.843  -0.914  0.00  0.00    +0.000 A 
ATOM     12  C   UNL     1       3.574  -0.169  -0.626  0.00  0.00    +0.000 A 
ATOM     13  C   UNL     1       3.506   1.004   0.019  0.00  0.00    +0.000 A 
ATOM     14  C   UNL     1       2.308   1.492   0.369  0.00  0.00    +0.000 A 
ENDROOT
BRANCH   7  15
ATOM     15  N   UNL     1       0.059  -2.107  -1.446  0.00  0.00    +0.000 N 
ATOM     16  H   UNL     1       0.939  -2.572  -1.770  0.00  0.00    +0.000 HD
ATOM     17  H   UNL     1      -0.841  -2.599  -1.662  0.00  0.00    +0.000 HD
ENDBRANCH   7  15
TORSDOF 1
