REMARK  Name = Fragment
REMARK  10 active torsions:
REMARK  status: ('A' for Active; 'I' for Inactive)
REMARK    1  A    between atoms: C_1  and  C_2
REMARK    2  A    between atoms: C_2  and  N_3
REMARK    3  A    between atoms: N_3  and  C_4
REMARK    4  A    between atoms: C_5  and  O_7
REMARK    5  A    between atoms: O_7  and  C_8
REMARK    6  A    between atoms: C_12  and  C_14
REMARK    7  A    between atoms: C_14  and  C_15
REMARK    8  A    between atoms: C_14  and  N_16
REMARK    9  A    between atoms: N_16  and  C_17
REMARK   10  A    between atoms: N_16  and  C_18
REMARK                            x       y       z     vdW  Elec       q    Type
REMARK                         _______ _______ _______ _____ _____    ______ ____
ROOT
ATOM      8  C   UNL     1       0.418  -0.632   0.586  0.00  0.00    +0.000 A 
ATOM      9  C   UNL     1       0.979  -1.336  -0.416  0.00  0.00    +0.000 A 
ATOM     10  C   UNL     1       1.535  -0.728  -1.475  0.00  0.00    +0.000 A 
ATOM     11  C   UNL     1       1.541   0.610  -1.557  0.00  0.00    +0.000 A 
ATOM     12  C   UNL     1       0.990   1.351  -0.581  0.00  0.00    +0.000 A 
ATOM     13  C   UNL     1       0.438   0.710   0.465  0.00  0.00    +0.000 A 
ENDROOT
BRANCH  12  14
ATOM     14  C   UNL     1       0.987   2.873  -0.664  0.00  0.00    +0.000 C 
ATOM     15  C   UNL     1       0.025   3.278  -1.798  0.00  0.00    +0.000 C 
BRANCH  14  16
ATOM     16  N   UNL     1       2.353   3.374  -0.843  0.00  0.00    +0.000 NA
ATOM     17  C   UNL     1       2.401   4.812  -1.067  0.00  0.00    +0.000 C 
ATOM     18  C   UNL     1       3.192   3.030   0.300  0.00  0.00    +0.000 C 
ENDBRANCH  14  16
ENDBRANCH  12  14
BRANCH   8   7
ATOM      7  O   UNL     1      -0.172  -1.193   1.691  0.00  0.00    +0.000 OA
BRANCH   7   5
ATOM      3  N   UNL     1      -1.031  -3.399   1.508  0.00  0.00    +0.000 N 
ATOM      4  C   UNL     1      -0.927  -4.836   1.735  0.00  0.00    +0.000 C 
ATOM      5  C   UNL     1      -0.022  -2.539   1.872  0.00  0.00    +0.000 C 
ATOM      6  O   UNL     1       1.002  -2.968   2.357  0.00  0.00    +0.000 OA
BRANCH   3   2
ATOM      1  C   UNL     1      -3.282  -2.534   2.008  0.00  0.00    +0.000 C 
ATOM      2  C   UNL     1      -2.285  -2.937   0.915  0.00  0.00    +0.000 C 
ENDBRANCH   3   2
ENDBRANCH   7   5
ENDBRANCH   8   7
TORSDOF 5
