REMARK  Name = Fragment
REMARK  6 active torsions:
REMARK  status: ('A' for Active; 'I' for Inactive)
REMARK    1  A    between atoms: C_1  and  C_2
REMARK    2  A    between atoms: C_2  and  C_4
REMARK    3  A    between atoms: C_5  and  O_19
REMARK    4  A    between atoms: C_10  and  C_11
REMARK    5  A    between atoms: C_14  and  O_17
REMARK    6  A    between atoms: O_17  and  C_18
REMARK                            x       y       z     vdW  Elec       q    Type
REMARK                         _______ _______ _______ _____ _____    ______ ____
ROOT
ATOM      1  C   UNL     1       0.539  -1.428  -0.000  0.00  0.00    +0.000 C 
ATOM     10  C   UNL     1       1.615  -0.612  -0.000  0.00  0.00    +0.000 C 
ENDROOT
BRANCH  10  11
ATOM     11  C   UNL     1       1.633   0.740  -0.000  0.00  0.00    +0.000 A 
ATOM     12  C   UNL     1       2.820   1.380  -0.001  0.00  0.00    +0.000 A 
ATOM     13  C   UNL     1       2.904   2.719  -0.001  0.00  0.00    +0.000 A 
ATOM     14  C   UNL     1       1.819   3.515  -0.000  0.00  0.00    +0.000 A 
ATOM     15  C   UNL     1       0.635   2.873  -0.000  0.00  0.00    +0.000 A 
ATOM     16  C   UNL     1       0.543   1.532  -0.000  0.00  0.00    +0.000 A 
BRANCH  14  17
ATOM     17  O   UNL     1       1.993   4.878  -0.000  0.00  0.00    +0.000 OA
ATOM     18  C   UNL     1       0.853   5.706  -0.000  0.00  0.00    +0.000 C 
ENDBRANCH  14  17
ENDBRANCH  10  11
BRANCH   1   2
ATOM      2  C   UNL     1       0.595  -2.798  -0.000  0.00  0.00    +0.000 C 
ATOM      3  O   UNL     1       1.703  -3.302  -0.000  0.00  0.00    +0.000 OA
BRANCH   2   4
ATOM      4  C   UNL     1      -0.547  -3.572  -0.000  0.00  0.00    +0.000 A 
ATOM      5  C   UNL     1      -0.474  -4.931  -0.000  0.00  0.00    +0.000 A 
ATOM      6  C   UNL     1      -1.606  -5.662  -0.000  0.00  0.00    +0.000 A 
ATOM      7  C   UNL     1      -2.824  -5.109   0.000  0.00  0.00    +0.000 A 
ATOM      8  C   UNL     1      -2.909  -3.776   0.000  0.00  0.00    +0.000 A 
ATOM      9  C   UNL     1      -1.790  -3.037   0.000  0.00  0.00    +0.000 A 
BRANCH   5  19
ATOM     19  O   UNL     1       0.688  -5.646  -0.001  0.00  0.00    +0.000 OA
ATOM     20  H   UNL     1       0.484  -6.596  -0.001  0.00  0.00    +0.000 HD
ENDBRANCH   5  19
ENDBRANCH   2   4
ENDBRANCH   1   2
TORSDOF 5
