REMARK  Name = Fragment
REMARK  4 active torsions:
REMARK  status: ('A' for Active; 'I' for Inactive)
REMARK    1  A    between atoms: C_3  and  O_4
REMARK    2  A    between atoms: N_10  and  C_11
REMARK    3  A    between atoms: C_17  and  O_18
REMARK    4  A    between atoms: O_18  and  C_19
REMARK                            x       y       z     vdW  Elec       q    Type
REMARK                         _______ _______ _______ _____ _____    ______ ____
ROOT
ATOM      1  C   UNL     1      -1.254  -2.301  -0.537  0.00  0.00    +0.000 C 
ATOM      2  C   UNL     1      -2.040  -3.180   0.447  0.00  0.00    +0.000 C 
ATOM      3  C   UNL     1      -3.320  -2.492   0.902  0.00  0.00    +0.000 C 
ATOM      5  C   UNL     1      -2.929  -1.200   1.559  0.00  0.00    +0.000 C 
ATOM      6  C   UNL     1      -1.956  -0.443   1.035  0.00  0.00    +0.000 C 
ATOM      7  C   UNL     1      -1.307  -0.769  -0.289  0.00  0.00    +0.000 C 
ATOM      8  C   UNL     1      -1.981  -0.018  -1.447  0.00  0.00    +0.000 C 
ATOM      9  C   UNL     1      -2.044   1.514  -1.325  0.00  0.00    +0.000 C 
ATOM     10  N   UNL     1      -0.755   2.200  -1.387  0.00  0.00    +0.000 NA
ATOM     11  C   UNL     1      -0.970   3.631  -1.577  0.00  0.00    +0.000 C 
ATOM     12  C   UNL     1       0.070   1.976  -0.202  0.00  0.00    +0.000 C 
ATOM     13  C   UNL     1       0.809   0.656  -0.272  0.00  0.00    +0.000 A 
ATOM     14  C   UNL     1       0.177  -0.526  -0.314  0.00  0.00    +0.000 A 
ATOM     15  C   UNL     1       0.854  -1.676  -0.425  0.00  0.00    +0.000 A 
ATOM     16  O   UNL     1       0.126  -2.664  -0.508  0.00  0.00    +0.000 OA
ATOM     17  C   UNL     1       2.198  -1.744  -0.455  0.00  0.00    +0.000 A 
ATOM     20  C   UNL     1       2.825  -0.552  -0.387  0.00  0.00    +0.000 A 
ATOM     21  C   UNL     1       2.153   0.609  -0.305  0.00  0.00    +0.000 A 
ENDROOT
BRANCH   3   4
ATOM      4  O   UNL     1      -4.008  -3.318   1.823  0.00  0.00    +0.000 OA
ATOM     22  H   UNL     1      -4.659  -2.780   2.280  0.00  0.00    +0.000 HD
ENDBRANCH   3   4
BRANCH  17  18
ATOM     18  O   UNL     1       2.814  -2.967  -0.561  0.00  0.00    +0.000 OA
ATOM     19  C   UNL     1       4.221  -3.015  -0.616  0.00  0.00    +0.000 C 
ENDBRANCH  17  18
TORSDOF 2
