REMARK  Name = Fragment
REMARK  6 active torsions:
REMARK  status: ('A' for Active; 'I' for Inactive)
REMARK    1  A    between atoms: C_3  and  C_17
REMARK    2  A    between atoms: C_5  and  C_7
REMARK    3  A    between atoms: C_7  and  C_8
REMARK    4  A    between atoms: C_9  and  C_10
REMARK    5  A    between atoms: C_13  and  O_21
REMARK    6  A    between atoms: O_21  and  C_22
REMARK                            x       y       z     vdW  Elec       q    Type
REMARK                         _______ _______ _______ _____ _____    ______ ____
ROOT
ATOM      7  C   UNL     1       0.169  -2.072   0.424  0.00  0.00    +0.000 C 
ATOM     16  O   UNL     1      -0.618  -2.970   0.662  0.00  0.00    +0.000 OA
ENDROOT
BRANCH   7   5
ATOM      1  C   UNL     1       3.781  -1.675   0.324  0.00  0.00    +0.000 A 
ATOM      2  C   UNL     1       4.185  -2.909   0.653  0.00  0.00    +0.000 A 
ATOM      3  C   UNL     1       3.277  -3.864   0.906  0.00  0.00    +0.000 A 
ATOM      4  C   UNL     1       1.972  -3.540   0.818  0.00  0.00    +0.000 A 
ATOM      5  C   UNL     1       1.523  -2.308   0.489  0.00  0.00    +0.000 A 
ATOM      6  C   UNL     1       2.474  -1.382   0.244  0.00  0.00    +0.000 A 
BRANCH   3  17
ATOM     17  C   UNL     1       3.687  -5.271   1.282  0.00  0.00    +0.000 C 
ATOM     18  F   UNL     1       4.998  -5.446   1.330  0.00  0.00    +0.000 F 
ATOM     19  F   UNL     1       3.198  -5.593   2.470  0.00  0.00    +0.000 F 
ATOM     20  F   UNL     1       3.200  -6.142   0.411  0.00  0.00    +0.000 F 
ENDBRANCH   3  17
ENDBRANCH   7   5
BRANCH   7   8
ATOM      8  C   UNL     1      -0.326  -0.838   0.095  0.00  0.00    +0.000 C 
ATOM      9  C   UNL     1      -1.639  -0.539   0.013  0.00  0.00    +0.000 C 
BRANCH   9  10
ATOM     10  C   UNL     1      -2.201   0.649  -0.304  0.00  0.00    +0.000 A 
ATOM     11  C   UNL     1      -3.545   0.751  -0.333  0.00  0.00    +0.000 A 
ATOM     12  C   UNL     1      -4.161   1.902  -0.641  0.00  0.00    +0.000 A 
ATOM     13  C   UNL     1      -3.489   3.029  -0.940  0.00  0.00    +0.000 A 
ATOM     14  C   UNL     1      -2.147   2.922  -0.910  0.00  0.00    +0.000 A 
ATOM     15  C   UNL     1      -1.522   1.773  -0.603  0.00  0.00    +0.000 A 
BRANCH  13  21
ATOM     21  O   UNL     1      -4.197   4.166  -1.244  0.00  0.00    +0.000 OA
ATOM     22  C   UNL     1      -3.488   5.343  -1.557  0.00  0.00    +0.000 C 
ENDBRANCH  13  21
ENDBRANCH   9  10
ENDBRANCH   7   8
TORSDOF 5
