REMARK  Name = Fragment
REMARK  9 active torsions:
REMARK  status: ('A' for Active; 'I' for Inactive)
REMARK    1  A    between atoms: C_1  and  C_2
REMARK    2  A    between atoms: C_2  and  C_4
REMARK    3  A    between atoms: C_6  and  C_17
REMARK    4  A    between atoms: C_7  and  O_22
REMARK    5  A    between atoms: C_10  and  C_11
REMARK    6  A    between atoms: C_13  and  O_20
REMARK    7  A    between atoms: C_14  and  O_18
REMARK    8  A    between atoms: O_18  and  C_19
REMARK    9  A    between atoms: O_20  and  C_21
REMARK                            x       y       z     vdW  Elec       q    Type
REMARK                         _______ _______ _______ _____ _____    ______ ____
ROOT
ATOM      1  C   UNL     1      -0.610   0.701   0.002  0.00  0.00    +0.000 C 
ATOM     10  C   UNL     1       0.631   1.232   0.002  0.00  0.00    +0.000 C 
ENDROOT
BRANCH  10  11
ATOM     11  C   UNL     1       1.813   0.575   0.002  0.00  0.00    +0.000 A 
ATOM     12  C   UNL     1       2.964   1.272   0.002  0.00  0.00    +0.000 A 
ATOM     13  C   UNL     1       4.206   0.741   0.002  0.00  0.00    +0.000 A 
ATOM     14  C   UNL     1       4.322  -0.611   0.002  0.00  0.00    +0.000 A 
ATOM     15  C   UNL     1       3.174  -1.320   0.002  0.00  0.00    +0.000 A 
ATOM     16  C   UNL     1       1.956  -0.760   0.002  0.00  0.00    +0.000 A 
BRANCH  14  18
ATOM     18  O   UNL     1       5.558  -1.211   0.002  0.00  0.00    +0.000 OA
ATOM     19  C   UNL     1       5.665  -2.615   0.002  0.00  0.00    +0.000 C 
ENDBRANCH  14  18
BRANCH  13  20
ATOM     20  O   UNL     1       5.236   1.661   0.002  0.00  0.00    +0.000 OA
ATOM     21  C   UNL     1       6.586   1.267   0.001  0.00  0.00    +0.000 C 
ENDBRANCH  13  20
ENDBRANCH  10  11
BRANCH   1   2
ATOM      2  C   UNL     1      -1.767   1.433   0.002  0.00  0.00    +0.000 C 
ATOM      3  O   UNL     1      -1.685   2.648   0.002  0.00  0.00    +0.000 OA
BRANCH   2   4
ATOM      4  C   UNL     1      -3.000   0.823   0.002  0.00  0.00    +0.000 A 
ATOM      5  C   UNL     1      -4.122   1.575   0.002  0.00  0.00    +0.000 A 
ATOM      6  C   UNL     1      -5.364   1.058   0.002  0.00  0.00    +0.000 A 
ATOM      7  C   UNL     1      -5.531  -0.277   0.002  0.00  0.00    +0.000 A 
ATOM      8  C   UNL     1      -4.429  -1.042   0.002  0.00  0.00    +0.000 A 
ATOM      9  C   UNL     1      -3.196  -0.511   0.002  0.00  0.00    +0.000 A 
ATOM     17  C   UNL     1      -6.582   1.958   0.002  0.00  0.00    +0.000 C 
BRANCH   7  22
ATOM     22  O   UNL     1      -6.766  -0.849   0.002  0.00  0.00    +0.000 OA
ATOM     23  H   UNL     1      -6.670  -1.815   0.002  0.00  0.00    +0.000 HD
ENDBRANCH   7  22
ENDBRANCH   2   4
ENDBRANCH   1   2
TORSDOF 6
