REMARK  Name = Fragment
REMARK  7 active torsions:
REMARK  status: ('A' for Active; 'I' for Inactive)
REMARK    1  A    between atoms: C_1  and  C_2
REMARK    2  A    between atoms: C_2  and  C_4
REMARK    3  A    between atoms: C_7  and  O_20
REMARK    4  A    between atoms: C_10  and  C_11
REMARK    5  A    between atoms: C_12  and  C_17
REMARK    6  A    between atoms: C_14  and  O_18
REMARK    7  A    between atoms: O_18  and  C_19
REMARK                            x       y       z     vdW  Elec       q    Type
REMARK                         _______ _______ _______ _____ _____    ______ ____
ROOT
ATOM      1  C   UNL     1       0.364  -1.417  -0.017  0.00  0.00    +0.000 C 
ATOM     10  C   UNL     1       1.465  -0.635  -0.012  0.00  0.00    +0.000 C 
ENDROOT
BRANCH  10  11
ATOM     11  C   UNL     1       1.543   0.717  -0.005  0.00  0.00    +0.000 A 
ATOM     12  C   UNL     1       2.743   1.348   0.000  0.00  0.00    +0.000 A 
ATOM     13  C   UNL     1       2.788   2.694   0.007  0.00  0.00    +0.000 A 
ATOM     14  C   UNL     1       1.706   3.492   0.009  0.00  0.00    +0.000 A 
ATOM     15  C   UNL     1       0.525   2.849   0.002  0.00  0.00    +0.000 A 
ATOM     16  C   UNL     1       0.452   1.509  -0.004  0.00  0.00    +0.000 A 
ATOM     17  C   UNL     1       4.069   0.606  -0.000  0.00  0.00    +0.000 C 
BRANCH  14  18
ATOM     18  O   UNL     1       1.877   4.856   0.015  0.00  0.00    +0.000 OA
ATOM     19  C   UNL     1       0.736   5.682   0.005  0.00  0.00    +0.000 C 
ENDBRANCH  14  18
ENDBRANCH  10  11
BRANCH   1   2
ATOM      2  C   UNL     1       0.384  -2.787  -0.025  0.00  0.00    +0.000 C 
ATOM      3  O   UNL     1       1.461  -3.356  -0.028  0.00  0.00    +0.000 OA
BRANCH   2   4
ATOM      4  C   UNL     1      -0.780  -3.521  -0.028  0.00  0.00    +0.000 A 
ATOM      5  C   UNL     1      -0.719  -4.871  -0.036  0.00  0.00    +0.000 A 
ATOM      6  C   UNL     1      -1.819  -5.641  -0.040  0.00  0.00    +0.000 A 
ATOM      7  C   UNL     1      -3.049  -5.106  -0.035  0.00  0.00    +0.000 A 
ATOM      8  C   UNL     1      -3.124  -3.767  -0.027  0.00  0.00    +0.000 A 
ATOM      9  C   UNL     1      -2.024  -2.996  -0.024  0.00  0.00    +0.000 A 
BRANCH   7  20
ATOM     20  O   UNL     1      -4.168  -5.878  -0.039  0.00  0.00    +0.000 OA
ATOM     21  H   UNL     1      -4.951  -5.303  -0.034  0.00  0.00    +0.000 HD
ENDBRANCH   7  20
ENDBRANCH   2   4
ENDBRANCH   1   2
TORSDOF 5
