REMARK  Name = Fragment
REMARK  5 active torsions:
REMARK  status: ('A' for Active; 'I' for Inactive)
REMARK    1  A    between atoms: C_1  and  C_2
REMARK    2  A    between atoms: C_2  and  C_4
REMARK    3  A    between atoms: C_6  and  C_17
REMARK    4  A    between atoms: C_7  and  O_18
REMARK    5  A    between atoms: C_10  and  C_11
REMARK                            x       y       z     vdW  Elec       q    Type
REMARK                         _______ _______ _______ _____ _____    ______ ____
ROOT
ATOM      2  C   UNL     1      -0.850   1.153  -0.000  0.00  0.00    +0.000 C 
ATOM      3  O   UNL     1      -0.825   2.371  -0.001  0.00  0.00    +0.000 OA
ENDROOT
BRANCH   2   4
ATOM      4  C   UNL     1      -2.052   0.486  -0.000  0.00  0.00    +0.000 A 
ATOM      5  C   UNL     1      -3.209   1.185  -0.000  0.00  0.00    +0.000 A 
ATOM      6  C   UNL     1      -4.426   0.610   0.000  0.00  0.00    +0.000 A 
ATOM      7  C   UNL     1      -4.530  -0.732   0.000  0.00  0.00    +0.000 A 
ATOM      8  C   UNL     1      -3.393  -1.444   0.000  0.00  0.00    +0.000 A 
ATOM      9  C   UNL     1      -2.187  -0.857  -0.000  0.00  0.00    +0.000 A 
ATOM     17  C   UNL     1      -5.683   1.452   0.000  0.00  0.00    +0.000 C 
BRANCH   7  18
ATOM     18  O   UNL     1      -5.737  -1.360   0.000  0.00  0.00    +0.000 OA
ATOM     19  H   UNL     1      -5.596  -2.321   0.000  0.00  0.00    +0.000 HD
ENDBRANCH   7  18
ENDBRANCH   2   4
BRANCH   2   1
ATOM      1  C   UNL     1       0.341   0.476  -0.000  0.00  0.00    +0.000 C 
ATOM     10  C   UNL     1       1.555   1.065  -0.001  0.00  0.00    +0.000 C 
BRANCH  10  11
ATOM     11  C   UNL     1       2.769   0.469  -0.001  0.00  0.00    +0.000 A 
ATOM     12  C   UNL     1       3.873   1.246  -0.001  0.00  0.00    +0.000 A 
ATOM     13  C   UNL     1       5.111   0.727  -0.001  0.00  0.00    +0.000 A 
ATOM     14  C   UNL     1       5.282  -0.602  -0.001  0.00  0.00    +0.000 A 
ATOM     15  C   UNL     1       4.203  -1.396  -0.000  0.00  0.00    +0.000 A 
ATOM     16  C   UNL     1       2.969  -0.865  -0.000  0.00  0.00    +0.000 A 
ENDBRANCH  10  11
ENDBRANCH   2   1
TORSDOF 4
