REMARK  Name = Fragment
REMARK  8 active torsions:
REMARK  status: ('A' for Active; 'I' for Inactive)
REMARK    1  A    between atoms: C_1  and  C_2
REMARK    2  A    between atoms: C_2  and  C_4
REMARK    3  A    between atoms: C_5  and  O_21
REMARK    4  A    between atoms: C_10  and  C_11
REMARK    5  A    between atoms: C_12  and  O_19
REMARK    6  A    between atoms: C_14  and  O_17
REMARK    7  A    between atoms: O_17  and  C_18
REMARK    8  A    between atoms: O_19  and  C_20
REMARK                            x       y       z     vdW  Elec       q    Type
REMARK                         _______ _______ _______ _____ _____    ______ ____
ROOT
ATOM      1  C   UNL     1      -0.534  -1.421   0.000  0.00  0.00    +0.000 C 
ATOM     10  C   UNL     1       0.543  -0.606   0.000  0.00  0.00    +0.000 C 
ENDROOT
BRANCH  10  11
ATOM     11  C   UNL     1       0.582   0.750   0.000  0.00  0.00    +0.000 A 
ATOM     12  C   UNL     1       1.781   1.390   0.000  0.00  0.00    +0.000 A 
ATOM     13  C   UNL     1       1.768   2.740   0.000  0.00  0.00    +0.000 A 
ATOM     14  C   UNL     1       0.667   3.513   0.000  0.00  0.00    +0.000 A 
ATOM     15  C   UNL     1      -0.499   2.846   0.000  0.00  0.00    +0.000 A 
ATOM     16  C   UNL     1      -0.534   1.506   0.000  0.00  0.00    +0.000 A 
BRANCH  14  17
ATOM     17  O   UNL     1       0.806   4.880   0.000  0.00  0.00    +0.000 OA
ATOM     18  C   UNL     1      -0.354   5.680   0.001  0.00  0.00    +0.000 C 
ENDBRANCH  14  17
BRANCH  12  19
ATOM     19  O   UNL     1       2.950   0.658  -0.000  0.00  0.00    +0.000 OA
ATOM     20  C   UNL     1       4.195   1.316   0.000  0.00  0.00    +0.000 C 
ENDBRANCH  12  19
ENDBRANCH  10  11
BRANCH   1   2
ATOM      2  C   UNL     1      -0.487  -2.793   0.000  0.00  0.00    +0.000 C 
ATOM      3  O   UNL     1       0.616  -3.308   0.000  0.00  0.00    +0.000 OA
BRANCH   2   4
ATOM      4  C   UNL     1      -1.634  -3.560   0.000  0.00  0.00    +0.000 A 
ATOM      5  C   UNL     1      -1.570  -4.920   0.000  0.00  0.00    +0.000 A 
ATOM      6  C   UNL     1      -2.706  -5.644   0.001  0.00  0.00    +0.000 A 
ATOM      7  C   UNL     1      -3.920  -5.085   0.001  0.00  0.00    +0.000 A 
ATOM      8  C   UNL     1      -3.998  -3.751   0.001  0.00  0.00    +0.000 A 
ATOM      9  C   UNL     1      -2.874  -3.018   0.001  0.00  0.00    +0.000 A 
BRANCH   5  21
ATOM     21  O   UNL     1      -0.412  -5.643   0.000  0.00  0.00    +0.000 OA
ATOM     22  H   UNL     1      -0.624  -6.591   0.000  0.00  0.00    +0.000 HD
ENDBRANCH   5  21
ENDBRANCH   2   4
ENDBRANCH   1   2
TORSDOF 6
