REMARK  Name = Fragment
REMARK  8 active torsions:
REMARK  status: ('A' for Active; 'I' for Inactive)
REMARK    1  A    between atoms: C_1  and  C_2
REMARK    2  A    between atoms: C_2  and  C_4
REMARK    3  A    between atoms: C_7  and  O_21
REMARK    4  A    between atoms: C_10  and  C_11
REMARK    5  A    between atoms: C_13  and  O_19
REMARK    6  A    between atoms: C_14  and  O_17
REMARK    7  A    between atoms: O_17  and  C_18
REMARK    8  A    between atoms: O_19  and  C_20
REMARK                            x       y       z     vdW  Elec       q    Type
REMARK                         _______ _______ _______ _____ _____    ______ ____
ROOT
ATOM      1  C   UNL     1       0.015  -1.388  -0.002  0.00  0.00    +0.000 C 
ATOM     10  C   UNL     1       1.089  -0.572  -0.002  0.00  0.00    +0.000 C 
ENDROOT
BRANCH  10  11
ATOM     11  C   UNL     1       1.102   0.780  -0.002  0.00  0.00    +0.000 A 
ATOM     12  C   UNL     1       2.277   1.438  -0.002  0.00  0.00    +0.000 A 
ATOM     13  C   UNL     1       2.428   2.779  -0.002  0.00  0.00    +0.000 A 
ATOM     14  C   UNL     1       1.308   3.548  -0.002  0.00  0.00    +0.000 A 
ATOM     15  C   UNL     1       0.126   2.899  -0.002  0.00  0.00    +0.000 A 
ATOM     16  C   UNL     1       0.011   1.563  -0.002  0.00  0.00    +0.000 A 
BRANCH  14  17
ATOM     17  O   UNL     1       1.397   4.919  -0.002  0.00  0.00    +0.000 OA
ATOM     18  C   UNL     1       0.228   5.705  -0.002  0.00  0.00    +0.000 C 
ENDBRANCH  14  17
BRANCH  13  19
ATOM     19  O   UNL     1       3.736   3.221  -0.002  0.00  0.00    +0.000 OA
ATOM     20  C   UNL     1       4.060   4.590  -0.001  0.00  0.00    +0.000 C 
ENDBRANCH  13  19
ENDBRANCH  10  11
BRANCH   1   2
ATOM      2  C   UNL     1       0.080  -2.756  -0.002  0.00  0.00    +0.000 C 
ATOM      3  O   UNL     1       1.176  -3.287  -0.002  0.00  0.00    +0.000 OA
BRANCH   2   4
ATOM      4  C   UNL     1      -1.059  -3.526  -0.002  0.00  0.00    +0.000 A 
ATOM      5  C   UNL     1      -0.955  -4.874  -0.002  0.00  0.00    +0.000 A 
ATOM      6  C   UNL     1      -2.029  -5.678  -0.002  0.00  0.00    +0.000 A 
ATOM      7  C   UNL     1      -3.276  -5.183  -0.002  0.00  0.00    +0.000 A 
ATOM      8  C   UNL     1      -3.393  -3.847  -0.002  0.00  0.00    +0.000 A 
ATOM      9  C   UNL     1      -2.319  -3.041  -0.002  0.00  0.00    +0.000 A 
BRANCH   7  21
ATOM     21  O   UNL     1      -4.371  -5.990  -0.002  0.00  0.00    +0.000 OA
ATOM     22  H   UNL     1      -5.170  -5.439  -0.002  0.00  0.00    +0.000 HD
ENDBRANCH   7  21
ENDBRANCH   2   4
ENDBRANCH   1   2
TORSDOF 6
