REMARK  Name = Fragment
REMARK  7 active torsions:
REMARK  status: ('A' for Active; 'I' for Inactive)
REMARK    1  A    between atoms: C_1  and  C_2
REMARK    2  A    between atoms: C_2  and  C_4
REMARK    3  A    between atoms: C_6  and  C_17
REMARK    4  A    between atoms: C_7  and  O_20
REMARK    5  A    between atoms: C_10  and  C_11
REMARK    6  A    between atoms: C_14  and  O_18
REMARK    7  A    between atoms: O_18  and  C_19
REMARK                            x       y       z     vdW  Elec       q    Type
REMARK                         _______ _______ _______ _____ _____    ______ ____
ROOT
ATOM      2  C   UNL     1      -1.617   1.388   0.000  0.00  0.00    +0.000 C 
ATOM      3  O   UNL     1      -1.559   2.605  -0.000  0.00  0.00    +0.000 OA
ENDROOT
BRANCH   2   4
ATOM      4  C   UNL     1      -2.838   0.753   0.000  0.00  0.00    +0.000 A 
ATOM      5  C   UNL     1      -3.975   1.484   0.000  0.00  0.00    +0.000 A 
ATOM      6  C   UNL     1      -5.207   0.942   0.000  0.00  0.00    +0.000 A 
ATOM      7  C   UNL     1      -5.347  -0.396   0.000  0.00  0.00    +0.000 A 
ATOM      8  C   UNL     1      -4.230  -1.139   0.000  0.00  0.00    +0.000 A 
ATOM      9  C   UNL     1      -3.008  -0.585   0.000  0.00  0.00    +0.000 A 
ATOM     17  C   UNL     1      -6.441   1.817   0.000  0.00  0.00    +0.000 C 
BRANCH   7  20
ATOM     20  O   UNL     1      -6.571  -0.992   0.000  0.00  0.00    +0.000 OA
ATOM     21  H   UNL     1      -6.456  -1.956   0.000  0.00  0.00    +0.000 HD
ENDBRANCH   7  20
ENDBRANCH   2   4
BRANCH   2   1
ATOM      1  C   UNL     1      -0.446   0.679   0.000  0.00  0.00    +0.000 C 
ATOM     10  C   UNL     1       0.784   1.235  -0.000  0.00  0.00    +0.000 C 
BRANCH  10  11
ATOM     11  C   UNL     1       1.980   0.604   0.000  0.00  0.00    +0.000 A 
ATOM     12  C   UNL     1       3.109   1.341  -0.000  0.00  0.00    +0.000 A 
ATOM     13  C   UNL     1       4.324   0.773   0.000  0.00  0.00    +0.000 A 
ATOM     14  C   UNL     1       4.503  -0.561   0.000  0.00  0.00    +0.000 A 
ATOM     15  C   UNL     1       3.373  -1.293   0.000  0.00  0.00    +0.000 A 
ATOM     16  C   UNL     1       2.152  -0.731   0.000  0.00  0.00    +0.000 A 
BRANCH  14  18
ATOM     18  O   UNL     1       5.784  -1.061   0.000  0.00  0.00    +0.000 OA
ATOM     19  C   UNL     1       5.965  -2.458   0.000  0.00  0.00    +0.000 C 
ENDBRANCH  14  18
ENDBRANCH  10  11
ENDBRANCH   2   1
TORSDOF 5
