REMARK  Name = Fragment
REMARK  8 active torsions:
REMARK  status: ('A' for Active; 'I' for Inactive)
REMARK    1  A    between atoms: C_1  and  C_2
REMARK    2  A    between atoms: C_2  and  C_4
REMARK    3  A    between atoms: C_5  and  O_21
REMARK    4  A    between atoms: C_10  and  C_11
REMARK    5  A    between atoms: C_13  and  O_19
REMARK    6  A    between atoms: C_14  and  O_17
REMARK    7  A    between atoms: O_17  and  C_18
REMARK    8  A    between atoms: O_19  and  C_20
REMARK                            x       y       z     vdW  Elec       q    Type
REMARK                         _______ _______ _______ _____ _____    ______ ____
ROOT
ATOM      1  C   UNL     1      -0.325  -1.400  -0.001  0.00  0.00    +0.000 C 
ATOM     10  C   UNL     1       0.735  -0.563  -0.002  0.00  0.00    +0.000 C 
ENDROOT
BRANCH  10  11
ATOM     11  C   UNL     1       0.724   0.790  -0.002  0.00  0.00    +0.000 A 
ATOM     12  C   UNL     1       1.888   1.466  -0.002  0.00  0.00    +0.000 A 
ATOM     13  C   UNL     1       2.018   2.810  -0.002  0.00  0.00    +0.000 A 
ATOM     14  C   UNL     1       0.887   3.561  -0.001  0.00  0.00    +0.000 A 
ATOM     15  C   UNL     1      -0.285   2.893  -0.001  0.00  0.00    +0.000 A 
ATOM     16  C   UNL     1      -0.378   1.556  -0.001  0.00  0.00    +0.000 A 
BRANCH  14  17
ATOM     17  O   UNL     1       0.953   4.934  -0.002  0.00  0.00    +0.000 OA
ATOM     18  C   UNL     1      -0.228   5.701  -0.002  0.00  0.00    +0.000 C 
ENDBRANCH  14  17
BRANCH  13  19
ATOM     19  O   UNL     1       3.318   3.273  -0.002  0.00  0.00    +0.000 OA
ATOM     20  C   UNL     1       3.620   4.647  -0.001  0.00  0.00    +0.000 C 
ENDBRANCH  13  19
ENDBRANCH  10  11
BRANCH   1   2
ATOM      2  C   UNL     1      -0.242  -2.769  -0.001  0.00  0.00    +0.000 C 
ATOM      3  O   UNL     1       0.875  -3.252  -0.002  0.00  0.00    +0.000 OA
BRANCH   2   4
ATOM      4  C   UNL     1      -1.369  -3.564  -0.001  0.00  0.00    +0.000 A 
ATOM      5  C   UNL     1      -1.271  -4.922  -0.001  0.00  0.00    +0.000 A 
ATOM      6  C   UNL     1      -2.388  -5.674  -0.001  0.00  0.00    +0.000 A 
ATOM      7  C   UNL     1      -3.616  -5.145  -0.001  0.00  0.00    +0.000 A 
ATOM      8  C   UNL     1      -3.727  -3.813  -0.001  0.00  0.00    +0.000 A 
ATOM      9  C   UNL     1      -2.622  -3.053  -0.001  0.00  0.00    +0.000 A 
BRANCH   5  21
ATOM     21  O   UNL     1      -0.095  -5.615  -0.002  0.00  0.00    +0.000 OA
ATOM     22  H   UNL     1      -0.281  -6.568  -0.002  0.00  0.00    +0.000 HD
ENDBRANCH   5  21
ENDBRANCH   2   4
ENDBRANCH   1   2
TORSDOF 6
