REMARK  Name = Fragment
REMARK  8 active torsions:
REMARK  status: ('A' for Active; 'I' for Inactive)
REMARK    1  A    between atoms: C_3  and  C_4
REMARK    2  A    between atoms: C_4  and  C_5
REMARK    3  A    between atoms: N_8  and  C_9
REMARK    4  A    between atoms: C_9  and  C_10
REMARK    5  A    between atoms: C_22  and  O_23
REMARK    6  A    between atoms: O_23  and  C_24
REMARK    7  A    between atoms: C_25  and  O_26
REMARK    8  A    between atoms: O_26  and  C_27
REMARK                            x       y       z     vdW  Elec       q    Type
REMARK                         _______ _______ _______ _____ _____    ______ ____
ROOT
ATOM      1  O   UNL     1      -1.701   4.296   0.058  0.00  0.00    +0.000 OA
ATOM      2  C   UNL     1      -1.617   3.093   0.156  0.00  0.00    +0.000 C 
ATOM      3  C   UNL     1      -0.387   2.270  -0.250  0.00  0.00    +0.000 C 
ATOM     18  C   UNL     1      -0.758   0.807   0.091  0.00  0.00    +0.000 C 
ATOM     19  C   UNL     1      -2.154   0.979   0.608  0.00  0.00    +0.000 A 
ATOM     20  C   UNL     1      -2.564   2.244   0.623  0.00  0.00    +0.000 A 
ATOM     21  C   UNL     1      -3.787   2.560   1.063  0.00  0.00    +0.000 A 
ATOM     22  C   UNL     1      -4.645   1.609   1.497  0.00  0.00    +0.000 A 
ATOM     25  C   UNL     1      -4.223   0.313   1.508  0.00  0.00    +0.000 A 
ATOM     28  C   UNL     1      -2.986   0.029   1.044  0.00  0.00    +0.000 A 
ENDROOT
BRANCH  22  23
ATOM     23  O   UNL     1      -5.900   1.919   1.968  0.00  0.00    +0.000 OA
ATOM     24  C   UNL     1      -6.281   3.265   2.132  0.00  0.00    +0.000 C 
ENDBRANCH  22  23
BRANCH  25  26
ATOM     26  O   UNL     1      -4.969  -0.779   1.901  0.00  0.00    +0.000 OA
ATOM     27  C   UNL     1      -6.376  -0.744   1.860  0.00  0.00    +0.000 C 
ENDBRANCH  25  26
BRANCH   3   4
ATOM      4  C   UNL     1       0.903   2.774   0.420  0.00  0.00    +0.000 C 
BRANCH   4   5
ATOM      5  C   UNL     1       2.210   2.392  -0.304  0.00  0.00    +0.000 C 
ATOM      6  C   UNL     1       3.419   3.040   0.392  0.00  0.00    +0.000 C 
ATOM      7  C   UNL     1       4.737   2.655  -0.297  0.00  0.00    +0.000 C 
ATOM      8  N   UNL     1       4.923   1.211  -0.338  0.00  0.00    +0.000 NA
ATOM     16  C   UNL     1       3.817   0.570  -1.037  0.00  0.00    +0.000 C 
ATOM     17  C   UNL     1       2.462   0.880  -0.381  0.00  0.00    +0.000 C 
BRANCH   8   9
ATOM      9  C   UNL     1       6.208   0.872  -0.942  0.00  0.00    +0.000 C 
BRANCH   9  10
ATOM     10  C   UNL     1       6.521  -0.601  -0.763  0.00  0.00    +0.000 A 
ATOM     11  C   UNL     1       6.718  -1.108   0.467  0.00  0.00    +0.000 A 
ATOM     12  C   UNL     1       6.993  -2.410   0.641  0.00  0.00    +0.000 A 
ATOM     13  C   UNL     1       7.077  -3.225  -0.420  0.00  0.00    +0.000 A 
ATOM     14  C   UNL     1       6.884  -2.732  -1.653  0.00  0.00    +0.000 A 
ATOM     15  C   UNL     1       6.609  -1.429  -1.820  0.00  0.00    +0.000 A 
ENDBRANCH   9  10
ENDBRANCH   8   9
ENDBRANCH   4   5
ENDBRANCH   3   4
TORSDOF 6
