REMARK  Name = Fragment
REMARK  3 active torsions:
REMARK  status: ('A' for Active; 'I' for Inactive)
REMARK    1  A    between atoms: C_1  and  C_2
REMARK    2  A    between atoms: C_2  and  C_3
REMARK    3  A    between atoms: C_9  and  C_10
REMARK                            x       y       z     vdW  Elec       q    Type
REMARK                         _______ _______ _______ _____ _____    ______ ____
ROOT
ATOM      1  C   UNL     1       0.499  -0.153   0.000  0.00  0.00    +0.000 C 
ATOM      9  C   UNL     1       1.591   0.632   0.001  0.00  0.00    +0.000 C 
ENDROOT
BRANCH   9  10
ATOM     10  C   UNL     1       1.647   1.981   0.001  0.00  0.00    +0.000 A 
ATOM     11  C   UNL     1       2.856   2.581   0.001  0.00  0.00    +0.000 A 
ATOM     12  C   UNL     1       2.983   3.918   0.001  0.00  0.00    +0.000 A 
ATOM     13  C   UNL     1       1.891   4.696   0.001  0.00  0.00    +0.000 A 
ATOM     14  C   UNL     1       0.680   4.122   0.001  0.00  0.00    +0.000 A 
ATOM     15  C   UNL     1       0.564   2.784   0.001  0.00  0.00    +0.000 A 
ENDBRANCH   9  10
BRANCH   1   2
ATOM      2  C   UNL     1       0.606  -1.661   0.000  0.00  0.00    +0.000 C 
BRANCH   2   3
ATOM      3  C   UNL     1      -0.643  -2.526   0.001  0.00  0.00    +0.000 A 
ATOM      4  C   UNL     1      -1.904  -2.055   0.001  0.00  0.00    +0.000 A 
ATOM      5  C   UNL     1      -2.960  -2.886   0.001  0.00  0.00    +0.000 A 
ATOM      6  C   UNL     1      -2.777  -4.214   0.001  0.00  0.00    +0.000 A 
ATOM      7  C   UNL     1      -1.529  -4.704   0.001  0.00  0.00    +0.000 A 
ATOM      8  C   UNL     1      -0.482  -3.864   0.001  0.00  0.00    +0.000 A 
ENDBRANCH   2   3
ENDBRANCH   1   2
TORSDOF 3
