REMARK  Name = Fragment
REMARK  3 active torsions:
REMARK  status: ('A' for Active; 'I' for Inactive)
REMARK    1  A    between atoms: C_1  and  C_2
REMARK    2  A    between atoms: C_2  and  C_4
REMARK    3  A    between atoms: C_10  and  C_11
REMARK                            x       y       z     vdW  Elec       q    Type
REMARK                         _______ _______ _______ _____ _____    ______ ____
ROOT
ATOM      1  C   UNL     1       0.635  -0.413   0.000  0.00  0.00    +0.000 C 
ATOM     10  C   UNL     1       1.696   0.422   0.000  0.00  0.00    +0.000 C 
ENDROOT
BRANCH  10  11
ATOM     11  C   UNL     1       1.695   1.776   0.000  0.00  0.00    +0.000 A 
ATOM     12  C   UNL     1       2.881   2.423   0.000  0.00  0.00    +0.000 A 
ATOM     13  C   UNL     1       2.967   3.763   0.000  0.00  0.00    +0.000 A 
ATOM     14  C   UNL     1       1.853   4.507   0.000  0.00  0.00    +0.000 A 
ATOM     15  C   UNL     1       0.662   3.892   0.000  0.00  0.00    +0.000 A 
ATOM     16  C   UNL     1       0.590   2.551   0.000  0.00  0.00    +0.000 A 
ENDBRANCH  10  11
BRANCH   1   2
ATOM      2  C   UNL     1       0.581  -1.772   0.000  0.00  0.00    +0.000 C 
ATOM      3  C   UNL     1       1.758  -2.438   0.000  0.00  0.00    +0.000 C 
BRANCH   2   4
ATOM      4  C   UNL     1      -0.604  -2.456   0.000  0.00  0.00    +0.000 A 
ATOM      5  C   UNL     1      -0.678  -3.809   0.000  0.00  0.00    +0.000 A 
ATOM      6  C   UNL     1      -1.828  -4.504   0.000  0.00  0.00    +0.000 A 
ATOM      7  C   UNL     1      -3.003  -3.867   0.000  0.00  0.00    +0.000 A 
ATOM      8  C   UNL     1      -2.988  -2.530   0.000  0.00  0.00    +0.000 A 
ATOM      9  C   UNL     1      -1.822  -1.861   0.000  0.00  0.00    +0.000 A 
ENDBRANCH   2   4
ENDBRANCH   1   2
TORSDOF 3
