REMARK  Name = Fragment
REMARK  4 active torsions:
REMARK  status: ('A' for Active; 'I' for Inactive)
REMARK    1  A    between atoms: C_1  and  C_2
REMARK    2  A    between atoms: C_2  and  C_3
REMARK    3  A    between atoms: C_9  and  C_10
REMARK    4  A    between atoms: C_13  and  C_16
REMARK                            x       y       z     vdW  Elec       q    Type
REMARK                         _______ _______ _______ _____ _____    ______ ____
ROOT
ATOM     10  C   UNL     1       1.786   0.613  -0.134  0.00  0.00    +0.000 A 
ATOM     11  C   UNL     1       2.855   1.435  -0.154  0.00  0.00    +0.000 A 
ATOM     12  C   UNL     1       4.110   0.970  -0.054  0.00  0.00    +0.000 A 
ATOM     13  C   UNL     1       4.354  -0.345   0.070  0.00  0.00    +0.000 A 
ATOM     14  C   UNL     1       3.294  -1.171   0.090  0.00  0.00    +0.000 A 
ATOM     15  C   UNL     1       2.039  -0.704  -0.009  0.00  0.00    +0.000 A 
ENDROOT
BRANCH  13  16
ATOM     16  C   UNL     1       5.753  -0.903   0.184  0.00  0.00    +0.000 C 
ATOM     17  F   UNL     1       6.699   0.022   0.152  0.00  0.00    +0.000 F 
ATOM     18  F   UNL     1       5.991  -1.754  -0.802  0.00  0.00    +0.000 F 
ATOM     19  F   UNL     1       5.889  -1.577   1.316  0.00  0.00    +0.000 F 
ENDBRANCH  13  16
BRANCH  10   9
ATOM      1  C   UNL     1      -0.632   0.502  -0.239  0.00  0.00    +0.000 C 
ATOM      9  C   UNL     1       0.549   1.145  -0.238  0.00  0.00    +0.000 C 
BRANCH   1   2
ATOM      2  C   UNL     1      -1.941   1.247  -0.364  0.00  0.00    +0.000 C 
BRANCH   2   3
ATOM      3  C   UNL     1      -3.262   0.497  -0.365  0.00  0.00    +0.000 A 
ATOM      4  C   UNL     1      -3.388  -0.839  -0.259  0.00  0.00    +0.000 A 
ATOM      5  C   UNL     1      -4.594  -1.431  -0.267  0.00  0.00    +0.000 A 
ATOM      6  C   UNL     1      -5.709  -0.695  -0.382  0.00  0.00    +0.000 A 
ATOM      7  C   UNL     1      -5.606   0.638  -0.489  0.00  0.00    +0.000 A 
ATOM      8  C   UNL     1      -4.396   1.217  -0.480  0.00  0.00    +0.000 A 
ENDBRANCH   2   3
ENDBRANCH   1   2
ENDBRANCH  10   9
TORSDOF 4
