REMARK  Name = Fragment
REMARK  5 active torsions:
REMARK  status: ('A' for Active; 'I' for Inactive)
REMARK    1  A    between atoms: N_19  and  C_22
REMARK    2  A    between atoms: C_22  and  C_23
REMARK    3  A    between atoms: C_24  and  C_25
REMARK    4  A    between atoms: C_28  and  O_31
REMARK    5  A    between atoms: O_31  and  C_32
REMARK                            x       y       z     vdW  Elec       q    Type
REMARK                         _______ _______ _______ _____ _____    ______ ____
ROOT
ATOM      1  C   UNL     1       0.145  -3.645   4.457  0.00  0.00    +0.000 A 
ATOM      2  C   UNL     1       0.678  -2.476   4.849  0.00  0.00    +0.000 A 
ATOM      3  C   UNL     1       1.377  -1.726   3.982  0.00  0.00    +0.000 A 
ATOM      4  C   UNL     1       1.544  -2.156   2.723  0.00  0.00    +0.000 A 
ATOM      5  C   UNL     1       1.010  -3.327   2.330  0.00  0.00    +0.000 A 
ATOM      6  C   UNL     1       0.307  -4.074   3.195  0.00  0.00    +0.000 A 
ATOM      7  C   UNL     1       2.293  -1.405   1.642  0.00  0.00    +0.000 C 
ATOM      8  C   UNL     1       3.291  -2.409   1.101  0.00  0.00    +0.000 A 
ATOM      9  C   UNL     1       2.758  -3.580   0.708  0.00  0.00    +0.000 A 
ATOM     10  C   UNL     1       1.255  -3.683   0.878  0.00  0.00    +0.000 C 
ATOM     11  C   UNL     1       1.279  -1.166   0.504  0.00  0.00    +0.000 C 
ATOM     12  C   UNL     1       0.657  -2.528   0.049  0.00  0.00    +0.000 C 
ATOM     13  C   UNL     1       4.611  -2.197   0.992  0.00  0.00    +0.000 A 
ATOM     14  C   UNL     1       5.396  -3.165   0.490  0.00  0.00    +0.000 A 
ATOM     15  C   UNL     1      -0.834  -2.340   0.279  0.00  0.00    +0.000 C 
ATOM     16  C   UNL     1       4.863  -4.334   0.098  0.00  0.00    +0.000 A 
ATOM     17  C   UNL     1       3.541  -4.545   0.204  0.00  0.00    +0.000 A 
ATOM     18  C   UNL     1       0.075  -0.348   0.942  0.00  0.00    +0.000 C 
ATOM     19  N   UNL     1      -1.070  -1.090   0.796  0.00  0.00    +0.000 N 
ATOM     20  O   UNL     1      -1.686  -3.164   0.051  0.00  0.00    +0.000 OA
ATOM     21  O   UNL     1       0.110   0.783   1.365  0.00  0.00    +0.000 OA
ENDROOT
BRANCH  19  22
ATOM     22  C   UNL     1      -2.397  -0.588   1.128  0.00  0.00    +0.000 C 
BRANCH  22  23
ATOM     23  C   UNL     1      -2.942   0.193  -0.043  0.00  0.00    +0.000 C 
ATOM     24  C   UNL     1      -3.190   1.513  -0.002  0.00  0.00    +0.000 C 
BRANCH  24  25
ATOM     25  C   UNL     1      -3.664   2.294  -0.994  0.00  0.00    +0.000 A 
ATOM     26  C   UNL     1      -3.848   3.609  -0.767  0.00  0.00    +0.000 A 
ATOM     27  C   UNL     1      -4.316   4.428  -1.721  0.00  0.00    +0.000 A 
ATOM     28  C   UNL     1      -4.630   3.999  -2.958  0.00  0.00    +0.000 A 
ATOM     29  C   UNL     1      -4.447   2.682  -3.176  0.00  0.00    +0.000 A 
ATOM     30  C   UNL     1      -3.978   1.855  -2.227  0.00  0.00    +0.000 A 
BRANCH  28  31
ATOM     31  O   UNL     1      -5.106   4.909  -3.868  0.00  0.00    +0.000 OA
BRANCH  31  32
ATOM     32  C   UNL     1      -5.503   4.475  -5.176  0.00  0.00    +0.000 C 
ATOM     33  F   UNL     1      -6.482   3.578  -5.157  0.00  0.00    +0.000 F 
ATOM     34  F   UNL     1      -4.506   3.957  -5.883  0.00  0.00    +0.000 F 
ATOM     35  F   UNL     1      -5.961   5.503  -5.886  0.00  0.00    +0.000 F 
ENDBRANCH  31  32
ENDBRANCH  28  31
ENDBRANCH  24  25
ENDBRANCH  22  23
ENDBRANCH  19  22
TORSDOF 5
