REMARK  Name = Fragment
REMARK  5 active torsions:
REMARK  status: ('A' for Active; 'I' for Inactive)
REMARK    1  A    between atoms: C_17  and  C_35
REMARK    2  A    between atoms: N_19  and  C_22
REMARK    3  A    between atoms: C_22  and  C_23
REMARK    4  A    between atoms: C_24  and  C_25
REMARK    5  A    between atoms: C_28  and  C_31
REMARK                            x       y       z     vdW  Elec       q    Type
REMARK                         _______ _______ _______ _____ _____    ______ ____
ROOT
ATOM      1  C   UNL     1      -2.481  -6.552   2.042  0.00  0.00    +0.000 A 
ATOM      2  C   UNL     1      -1.707  -6.138   3.059  0.00  0.00    +0.000 A 
ATOM      3  C   UNL     1      -0.659  -5.331   2.829  0.00  0.00    +0.000 A 
ATOM      4  C   UNL     1      -0.390  -4.945   1.573  0.00  0.00    +0.000 A 
ATOM      5  C   UNL     1      -1.163  -5.358   0.555  0.00  0.00    +0.000 A 
ATOM      6  C   UNL     1      -2.213  -6.162   0.785  0.00  0.00    +0.000 A 
ATOM      7  C   UNL     1       0.747  -4.031   1.169  0.00  0.00    +0.000 C 
ATOM      8  C   UNL     1       1.473  -4.790   0.075  0.00  0.00    +0.000 A 
ATOM      9  C   UNL     1       0.709  -5.208  -0.954  0.00  0.00    +0.000 A 
ATOM     10  C   UNL     1      -0.757  -4.829  -0.805  0.00  0.00    +0.000 C 
ATOM     11  C   UNL     1       0.105  -2.811   0.480  0.00  0.00    +0.000 C 
ATOM     12  C   UNL     1      -0.801  -3.290  -0.700  0.00  0.00    +0.000 C 
ATOM     13  C   UNL     1       2.790  -5.038   0.098  0.00  0.00    +0.000 A 
ATOM     14  C   UNL     1       3.342  -5.714  -0.919  0.00  0.00    +0.000 A 
ATOM     15  C   UNL     1      -2.178  -2.754  -0.338  0.00  0.00    +0.000 C 
ATOM     16  C   UNL     1       2.579  -6.129  -1.942  0.00  0.00    +0.000 A 
ATOM     17  C   UNL     1       1.254  -5.888  -1.984  0.00  0.00    +0.000 A 
ATOM     18  C   UNL     1      -0.850  -2.047   1.384  0.00  0.00    +0.000 C 
ATOM     19  N   UNL     1      -2.115  -2.079   0.855  0.00  0.00    +0.000 N 
ATOM     20  O   UNL     1      -3.181  -2.905  -0.993  0.00  0.00    +0.000 OA
ATOM     21  O   UNL     1      -0.550  -1.500   2.418  0.00  0.00    +0.000 OA
ENDROOT
BRANCH  17  35
ATOM     35  C   UNL     1       0.426  -6.362  -3.157  0.00  0.00    +0.000 C 
ATOM     36  F   UNL     1      -0.519  -7.197  -2.749  0.00  0.00    +0.000 F 
ATOM     37  F   UNL     1       1.126  -6.988  -4.090  0.00  0.00    +0.000 F 
ATOM     38  F   UNL     1      -0.177  -5.337  -3.740  0.00  0.00    +0.000 F 
ENDBRANCH  17  35
BRANCH  19  22
ATOM     22  C   UNL     1      -3.263  -1.436   1.482  0.00  0.00    +0.000 C 
BRANCH  22  23
ATOM     23  C   UNL     1      -3.325   0.008   1.045  0.00  0.00    +0.000 C 
ATOM     24  C   UNL     1      -3.159   1.044   1.884  0.00  0.00    +0.000 C 
BRANCH  24  25
ATOM     25  C   UNL     1      -3.187   2.360   1.585  0.00  0.00    +0.000 A 
ATOM     26  C   UNL     1      -2.992   3.260   2.570  0.00  0.00    +0.000 A 
ATOM     27  C   UNL     1      -3.008   4.581   2.335  0.00  0.00    +0.000 A 
ATOM     28  C   UNL     1      -3.245   5.068   1.105  0.00  0.00    +0.000 A 
ATOM     29  C   UNL     1      -3.404   4.176   0.113  0.00  0.00    +0.000 A 
ATOM     30  C   UNL     1      -3.388   2.854   0.349  0.00  0.00    +0.000 A 
BRANCH  28  31
ATOM     31  C   UNL     1      -3.205   6.553   0.826  0.00  0.00    +0.000 C 
ATOM     32  F   UNL     1      -2.428   7.211   1.673  0.00  0.00    +0.000 F 
ATOM     33  F   UNL     1      -2.786   6.830  -0.399  0.00  0.00    +0.000 F 
ATOM     34  F   UNL     1      -4.425   7.054   0.945  0.00  0.00    +0.000 F 
ENDBRANCH  28  31
ENDBRANCH  24  25
ENDBRANCH  22  23
ENDBRANCH  19  22
TORSDOF 5
