REMARK  Name = Fragment
REMARK  4 active torsions:
REMARK  status: ('A' for Active; 'I' for Inactive)
REMARK    1  A    between atoms: N_19  and  C_22
REMARK    2  A    between atoms: C_22  and  C_23
REMARK    3  A    between atoms: C_24  and  C_25
REMARK    4  A    between atoms: C_28  and  C_31
REMARK                            x       y       z     vdW  Elec       q    Type
REMARK                         _______ _______ _______ _____ _____    ______ ____
ROOT
ATOM      1  C   UNL     1      -3.047  -5.318  -1.549  0.00  0.00    +0.000 A 
ATOM      2  C   UNL     1      -2.337  -5.774  -0.504  0.00  0.00    +0.000 A 
ATOM      3  C   UNL     1      -1.077  -5.354  -0.307  0.00  0.00    +0.000 A 
ATOM      4  C   UNL     1      -0.532  -4.478  -1.165  0.00  0.00    +0.000 A 
ATOM      5  C   UNL     1      -1.244  -4.022  -2.211  0.00  0.00    +0.000 A 
ATOM      6  C   UNL     1      -2.504  -4.438  -2.406  0.00  0.00    +0.000 A 
ATOM      7  C   UNL     1       0.868  -3.911  -1.053  0.00  0.00    +0.000 C 
ATOM      8  C   UNL     1       1.493  -4.169  -2.409  0.00  0.00    +0.000 A 
ATOM      9  C   UNL     1       0.783  -3.712  -3.457  0.00  0.00    +0.000 A 
ATOM     10  C   UNL     1      -0.516  -3.022  -3.087  0.00  0.00    +0.000 C 
ATOM     11  C   UNL     1       0.704  -2.381  -0.948  0.00  0.00    +0.000 C 
ATOM     12  C   UNL     1      -0.127  -1.850  -2.163  0.00  0.00    +0.000 C 
ATOM     13  C   UNL     1       2.664  -4.792  -2.603  0.00  0.00    +0.000 A 
ATOM     14  C   UNL     1       3.121  -4.959  -3.854  0.00  0.00    +0.000 A 
ATOM     15  C   UNL     1      -1.326  -1.176  -1.513  0.00  0.00    +0.000 C 
ATOM     16  C   UNL     1       2.412  -4.503  -4.899  0.00  0.00    +0.000 A 
ATOM     17  C   UNL     1       1.240  -3.876  -4.709  0.00  0.00    +0.000 A 
ATOM     18  C   UNL     1      -0.109  -1.950   0.263  0.00  0.00    +0.000 C 
ATOM     19  N   UNL     1      -1.241  -1.292  -0.148  0.00  0.00    +0.000 N 
ATOM     20  O   UNL     1      -2.226  -0.627  -2.103  0.00  0.00    +0.000 OA
ATOM     21  O   UNL     1       0.185  -2.159   1.415  0.00  0.00    +0.000 OA
ATOM     35  F   UNL     1       0.548  -3.427  -5.743  0.00  0.00    +0.000 F 
ENDROOT
BRANCH  19  22
ATOM     22  C   UNL     1      -2.230  -0.750   0.775  0.00  0.00    +0.000 C 
BRANCH  22  23
ATOM     23  C   UNL     1      -1.792   0.623   1.225  0.00  0.00    +0.000 C 
ATOM     24  C   UNL     1      -1.464   0.917   2.494  0.00  0.00    +0.000 C 
BRANCH  24  25
ATOM     25  C   UNL     1      -1.052   2.104   2.987  0.00  0.00    +0.000 A 
ATOM     26  C   UNL     1      -0.760   2.203   4.299  0.00  0.00    +0.000 A 
ATOM     27  C   UNL     1      -0.346   3.356   4.847  0.00  0.00    +0.000 A 
ATOM     28  C   UNL     1      -0.227   4.475   4.112  0.00  0.00    +0.000 A 
ATOM     29  C   UNL     1      -0.482   4.373   2.796  0.00  0.00    +0.000 A 
ATOM     30  C   UNL     1      -0.896   3.219   2.248  0.00  0.00    +0.000 A 
BRANCH  28  31
ATOM     31  C   UNL     1       0.297   5.758   4.713  0.00  0.00    +0.000 C 
ATOM     32  F   UNL     1       1.087   5.550   5.755  0.00  0.00    +0.000 F 
ATOM     33  F   UNL     1       0.970   6.492   3.841  0.00  0.00    +0.000 F 
ATOM     34  F   UNL     1      -0.722   6.492   5.136  0.00  0.00    +0.000 F 
ENDBRANCH  28  31
ENDBRANCH  24  25
ENDBRANCH  22  23
ENDBRANCH  19  22
TORSDOF 4
