REMARK  Name = Fragment
REMARK  4 active torsions:
REMARK  status: ('A' for Active; 'I' for Inactive)
REMARK    1  A    between atoms: C_17  and  C_21
REMARK    2  A    between atoms: C_20  and  C_22
REMARK    3  A    between atoms: C_25  and  O_31
REMARK    4  A    between atoms: C_28  and  O_34
REMARK                            x       y       z     vdW  Elec       q    Type
REMARK                         _______ _______ _______ _____ _____    ______ ____
ROOT
ATOM      1  C   UNL     1       1.594   4.155  -1.583  0.00  0.00    +0.000 A 
ATOM      2  C   UNL     1       0.752   4.537  -2.549  0.00  0.00    +0.000 A 
ATOM      3  C   UNL     1      -0.594   4.180  -2.396  0.00  0.00    +0.000 A 
ATOM      4  C   UNL     1      -0.851   3.061  -1.711  0.00  0.00    +0.000 A 
ATOM      5  C   UNL     1       0.073   2.552  -0.890  0.00  0.00    +0.000 A 
ATOM      6  C   UNL     1       1.255   3.163  -0.754  0.00  0.00    +0.000 A 
ATOM      7  C   UNL     1       2.092   2.788   0.219  0.00  0.00    +0.000 A 
ATOM      8  C   UNL     1       1.996   1.565   0.751  0.00  0.00    +0.000 A 
ATOM      9  C   UNL     1       2.705   1.252   1.840  0.00  0.00    +0.000 A 
ATOM     10  C   UNL     1       3.510   2.162   2.397  0.00  0.00    +0.000 A 
ATOM     11  C   UNL     1       3.857   3.267   1.640  0.00  0.00    +0.000 A 
ATOM     12  C   UNL     1       3.019   3.641   0.667  0.00  0.00    +0.000 A 
ATOM     13  C   UNL     1      -0.243   1.291  -0.148  0.00  0.00    +0.000 C 
ATOM     14  C   UNL     1       1.113   0.519   0.145  0.00  0.00    +0.000 C 
ATOM     15  C   UNL     1       0.078   0.111  -1.011  0.00  0.00    +0.000 C 
ATOM     16  C   UNL     1       1.525  -0.224  -1.201  0.00  0.00    +0.000 C 
ATOM     17  C   UNL     1       1.742  -1.679  -0.922  0.00  0.00    +0.000 C 
ATOM     18  N   UNL     1       0.760  -2.425  -1.181  0.00  0.00    +0.000 NA
ATOM     19  N   UNL     1      -0.583  -1.601  -2.321  0.00  0.00    +0.000 N 
ATOM     20  C   UNL     1      -0.885  -0.607  -1.597  0.00  0.00    +0.000 C 
ATOM     35  H   UNL     1      -0.950  -1.893  -3.261  0.00  0.00    +0.000 HD
ENDROOT
BRANCH  17  21
ATOM     21  C   UNL     1       2.893  -2.151  -0.432  0.00  0.00    +0.000 A 
ATOM     23  C   UNL     1       3.906  -1.269  -0.058  0.00  0.00    +0.000 A 
ATOM     24  C   UNL     1       5.107  -1.763   0.452  0.00  0.00    +0.000 A 
ATOM     25  C   UNL     1       5.294  -3.138   0.589  0.00  0.00    +0.000 A 
ATOM     29  C   UNL     1       4.280  -4.020   0.214  0.00  0.00    +0.000 A 
ATOM     30  C   UNL     1       3.080  -3.527  -0.296  0.00  0.00    +0.000 A 
BRANCH  25  31
ATOM     31  O   UNL     1       6.460  -3.617   1.084  0.00  0.00    +0.000 OA
ATOM     36  H   UNL     1       6.403  -4.588   1.103  0.00  0.00    +0.000 HD
ENDBRANCH  25  31
ENDBRANCH  17  21
BRANCH  20  22
ATOM     22  C   UNL     1      -2.168  -0.276  -1.418  0.00  0.00    +0.000 A 
ATOM     26  C   UNL     1      -2.802   0.574  -2.324  0.00  0.00    +0.000 A 
ATOM     27  C   UNL     1      -4.140   0.920  -2.137  0.00  0.00    +0.000 A 
ATOM     28  C   UNL     1      -4.845   0.415  -1.044  0.00  0.00    +0.000 A 
ATOM     32  C   UNL     1      -4.211  -0.435  -0.138  0.00  0.00    +0.000 A 
ATOM     33  C   UNL     1      -2.873  -0.781  -0.325  0.00  0.00    +0.000 A 
BRANCH  28  34
ATOM     34  O   UNL     1      -6.145   0.751  -0.863  0.00  0.00    +0.000 OA
ATOM     37  H   UNL     1      -6.460   0.307  -0.058  0.00  0.00    +0.000 HD
ENDBRANCH  28  34
ENDBRANCH  20  22
TORSDOF 4
