REMARK  Name = Fragment
REMARK  4 active torsions:
REMARK  status: ('A' for Active; 'I' for Inactive)
REMARK    1  A    between atoms: N_19  and  C_22
REMARK    2  A    between atoms: C_22  and  C_23
REMARK    3  A    between atoms: C_24  and  C_25
REMARK    4  A    between atoms: C_28  and  C_31
REMARK                            x       y       z     vdW  Elec       q    Type
REMARK                         _______ _______ _______ _____ _____    ______ ____
ROOT
ATOM      1  C   UNL     1      -3.023  -1.374  -4.427  0.00  0.00    +0.000 A 
ATOM      2  C   UNL     1      -2.652  -2.537  -3.866  0.00  0.00    +0.000 A 
ATOM      3  C   UNL     1      -1.374  -2.739  -3.507  0.00  0.00    +0.000 A 
ATOM      4  C   UNL     1      -0.470  -1.770  -3.717  0.00  0.00    +0.000 A 
ATOM      5  C   UNL     1      -0.841  -0.606  -4.278  0.00  0.00    +0.000 A 
ATOM      6  C   UNL     1      -2.119  -0.403  -4.633  0.00  0.00    +0.000 A 
ATOM      7  C   UNL     1       0.997  -1.859  -3.346  0.00  0.00    +0.000 C 
ATOM      8  C   UNL     1       1.735  -1.503  -4.620  0.00  0.00    +0.000 A 
ATOM      9  C   UNL     1       1.364  -0.338  -5.181  0.00  0.00    +0.000 A 
ATOM     10  C   UNL     1       0.274   0.408  -4.438  0.00  0.00    +0.000 C 
ATOM     11  C   UNL     1       1.261  -0.696  -2.368  0.00  0.00    +0.000 C 
ATOM     12  C   UNL     1       0.827   0.659  -3.020  0.00  0.00    +0.000 C 
ATOM     13  C   UNL     1       2.697  -2.248  -5.184  0.00  0.00    +0.000 A 
ATOM     14  C   UNL     1       3.284  -1.824  -6.314  0.00  0.00    +0.000 A 
ATOM     15  C   UNL     1      -0.218   1.205  -2.059  0.00  0.00    +0.000 C 
ATOM     16  C   UNL     1       2.913  -0.661  -6.875  0.00  0.00    +0.000 A 
ATOM     17  C   UNL     1       1.952   0.088  -6.309  0.00  0.00    +0.000 A 
ATOM     18  C   UNL     1       0.417  -0.775  -1.105  0.00  0.00    +0.000 C 
ATOM     19  N   UNL     1      -0.396   0.327  -1.019  0.00  0.00    +0.000 N 
ATOM     20  O   UNL     1      -0.812   2.248  -2.192  0.00  0.00    +0.000 OA
ATOM     21  O   UNL     1       0.443  -1.673  -0.298  0.00  0.00    +0.000 OA
ENDROOT
BRANCH  19  22
ATOM     22  C   UNL     1      -1.327   0.551   0.080  0.00  0.00    +0.000 C 
BRANCH  22  23
ATOM     23  C   UNL     1      -0.591   1.189   1.233  0.00  0.00    +0.000 C 
ATOM     24  C   UNL     1      -0.414   0.588   2.422  0.00  0.00    +0.000 C 
BRANCH  24  25
ATOM     25  C   UNL     1       0.235   1.069   3.503  0.00  0.00    +0.000 A 
ATOM     26  C   UNL     1       0.313   0.309   4.613  0.00  0.00    +0.000 A 
ATOM     27  C   UNL     1       0.945   0.733   5.718  0.00  0.00    +0.000 A 
ATOM     28  C   UNL     1       1.511   1.951   5.775  0.00  0.00    +0.000 A 
ATOM     29  C   UNL     1       1.467   2.699   4.659  0.00  0.00    +0.000 A 
ATOM     30  C   UNL     1       0.834   2.274   3.553  0.00  0.00    +0.000 A 
BRANCH  28  31
ATOM     31  C   UNL     1       2.275   2.407   6.996  0.00  0.00    +0.000 C 
ATOM     32  F   UNL     1       1.458   3.068   7.802  0.00  0.00    +0.000 F 
ATOM     33  F   UNL     1       3.273   3.223   6.697  0.00  0.00    +0.000 F 
ATOM     34  F   UNL     1       2.777   1.398   7.691  0.00  0.00    +0.000 F 
ENDBRANCH  28  31
ENDBRANCH  24  25
ENDBRANCH  22  23
ENDBRANCH  19  22
TORSDOF 4
