REMARK  Name = Fragment
REMARK  0 active torsions:
REMARK  status: ('A' for Active; 'I' for Inactive)
REMARK                            x       y       z     vdW  Elec       q    Type
REMARK                         _______ _______ _______ _____ _____    ______ ____
ROOT
ATOM      1  C   UNL     1       0.181   2.831  -1.380  0.00  0.00    +0.000 A 
ATOM      2  C   UNL     1      -0.664   3.214  -2.348  0.00  0.00    +0.000 A 
ATOM      3  C   UNL     1      -1.840   2.592  -2.481  0.00  0.00    +0.000 A 
ATOM      4  C   UNL     1      -2.143   1.608  -1.626  0.00  0.00    +0.000 A 
ATOM      5  C   UNL     1      -1.294   1.224  -0.652  0.00  0.00    +0.000 A 
ATOM      6  C   UNL     1      -0.087   1.823  -0.518  0.00  0.00    +0.000 A 
ATOM      7  C   UNL     1       0.836   1.509   0.427  0.00  0.00    +0.000 A 
ATOM      8  C   UNL     1       1.224   0.276   0.852  0.00  0.00    +0.000 A 
ATOM      9  C   UNL     1       2.125   0.192   1.856  0.00  0.00    +0.000 A 
ATOM     10  C   UNL     1       2.665   1.259   2.457  0.00  0.00    +0.000 A 
ATOM     11  C   UNL     1       2.308   2.472   2.029  0.00  0.00    +0.000 A 
ATOM     12  C   UNL     1       1.416   2.573   1.034  0.00  0.00    +0.000 A 
ATOM     13  C   UNL     1      -1.801   0.154   0.287  0.00  0.00    +0.000 C 
ATOM     14  C   UNL     1       0.892  -1.098   0.267  0.00  0.00    +0.000 C 
ATOM     15  C   UNL     1      -1.488  -1.155  -0.371  0.00  0.00    +0.000 C 
ATOM     16  C   UNL     1      -0.085  -1.303  -0.893  0.00  0.00    +0.000 C 
ATOM     17  C   UNL     1       0.015  -2.698  -1.470  0.00  0.00    +0.000 C 
ATOM     18  N   UNL     1      -0.914  -3.555  -1.513  0.00  0.00    +0.000 NA
ATOM     19  N   UNL     1      -2.010  -3.250  -1.038  0.00  0.00    +0.000 N 
ATOM     20  C   UNL     1      -2.361  -2.163  -0.489  0.00  0.00    +0.000 C 
ATOM     21  H   UNL     1      -2.713  -4.025  -1.117  0.00  0.00    +0.000 HD
ENDROOT
TORSDOF 0
