REMARK  Name = Fragment
REMARK  4 active torsions:
REMARK  status: ('A' for Active; 'I' for Inactive)
REMARK    1  A    between atoms: C_1  and  C_2
REMARK    2  A    between atoms: C_2  and  C_4
REMARK    3  A    between atoms: C_10  and  C_11
REMARK    4  A    between atoms: C_14  and  C_17
REMARK                            x       y       z     vdW  Elec       q    Type
REMARK                         _______ _______ _______ _____ _____    ______ ____
ROOT
ATOM      1  C   UNL     1       0.475  -0.993   0.000  0.00  0.00    +0.000 C 
ATOM     10  C   UNL     1       1.578  -0.214   0.000  0.00  0.00    +0.000 C 
ENDROOT
BRANCH  10  11
ATOM     11  C   UNL     1       1.643   1.136   0.000  0.00  0.00    +0.000 A 
ATOM     12  C   UNL     1       2.857   1.727   0.000  0.00  0.00    +0.000 A 
ATOM     13  C   UNL     1       3.003   3.062   0.000  0.00  0.00    +0.000 A 
ATOM     14  C   UNL     1       1.924   3.859   0.000  0.00  0.00    +0.000 A 
ATOM     15  C   UNL     1       0.707   3.295   0.000  0.00  0.00    +0.000 A 
ATOM     16  C   UNL     1       0.574   1.958   0.000  0.00  0.00    +0.000 A 
BRANCH  14  17
ATOM     17  C   UNL     1       2.057   5.168   0.000  0.00  0.00    +0.000 C 
ATOM     18  N   UNL     1       2.170   6.321   0.000  0.00  0.00    +0.000 NA
ENDBRANCH  14  17
ENDBRANCH  10  11
BRANCH   1   2
ATOM      2  C   UNL     1       0.493  -2.362   0.000  0.00  0.00    +0.000 C 
ATOM      3  O   UNL     1       1.572  -2.928   0.000  0.00  0.00    +0.000 OA
BRANCH   2   4
ATOM      4  C   UNL     1      -0.670  -3.095   0.000  0.00  0.00    +0.000 A 
ATOM      5  C   UNL     1      -0.606  -4.446   0.000  0.00  0.00    +0.000 A 
ATOM      6  C   UNL     1      -1.702  -5.221   0.000  0.00  0.00    +0.000 A 
ATOM      7  C   UNL     1      -2.920  -4.665   0.000  0.00  0.00    +0.000 A 
ATOM      8  C   UNL     1      -3.017  -3.330   0.000  0.00  0.00    +0.000 A 
ATOM      9  C   UNL     1      -1.913  -2.565   0.000  0.00  0.00    +0.000 A 
ENDBRANCH   2   4
ENDBRANCH   1   2
TORSDOF 4
