REMARK  Name = Fragment
REMARK  4 active torsions:
REMARK  status: ('A' for Active; 'I' for Inactive)
REMARK    1  A    between atoms: C_1  and  C_2
REMARK    2  A    between atoms: C_2  and  C_4
REMARK    3  A    between atoms: C_10  and  C_11
REMARK    4  A    between atoms: C_14  and  O_17
REMARK                            x       y       z     vdW  Elec       q    Type
REMARK                         _______ _______ _______ _____ _____    ______ ____
ROOT
ATOM      1  C   UNL     1       0.489  -0.648  -0.000  0.00  0.00    +0.000 C 
ATOM     10  C   UNL     1       1.589   0.134   0.000  0.00  0.00    +0.000 C 
ENDROOT
BRANCH  10  11
ATOM     11  C   UNL     1       1.648   1.485   0.000  0.00  0.00    +0.000 A 
ATOM     12  C   UNL     1       2.857   2.084   0.000  0.00  0.00    +0.000 A 
ATOM     13  C   UNL     1       2.990   3.420   0.000  0.00  0.00    +0.000 A 
ATOM     14  C   UNL     1       1.918   4.228   0.000  0.00  0.00    +0.000 A 
ATOM     15  C   UNL     1       0.712   3.640   0.000  0.00  0.00    +0.000 A 
ATOM     16  C   UNL     1       0.578   2.304   0.000  0.00  0.00    +0.000 A 
BRANCH  14  17
ATOM     17  O   UNL     1       2.042   5.582   0.001  0.00  0.00    +0.000 OA
ATOM     18  H   UNL     1       1.156   5.981   0.001  0.00  0.00    +0.000 HD
ENDBRANCH  14  17
ENDBRANCH  10  11
BRANCH   1   2
ATOM      2  C   UNL     1       0.511  -2.017  -0.000  0.00  0.00    +0.000 C 
ATOM      3  O   UNL     1       1.591  -2.581  -0.000  0.00  0.00    +0.000 OA
BRANCH   2   4
ATOM      4  C   UNL     1      -0.651  -2.753  -0.000  0.00  0.00    +0.000 A 
ATOM      5  C   UNL     1      -0.583  -4.104  -0.000  0.00  0.00    +0.000 A 
ATOM      6  C   UNL     1      -1.677  -4.882  -0.001  0.00  0.00    +0.000 A 
ATOM      7  C   UNL     1      -2.896  -4.329  -0.000  0.00  0.00    +0.000 A 
ATOM      8  C   UNL     1      -2.997  -2.994  -0.000  0.00  0.00    +0.000 A 
ATOM      9  C   UNL     1      -1.895  -2.226  -0.000  0.00  0.00    +0.000 A 
ENDBRANCH   2   4
ENDBRANCH   1   2
TORSDOF 4
