REMARK  Name = Fragment
REMARK  4 active torsions:
REMARK  status: ('A' for Active; 'I' for Inactive)
REMARK    1  A    between atoms: C_1  and  C_2
REMARK    2  A    between atoms: C_2  and  C_4
REMARK    3  A    between atoms: C_10  and  C_11
REMARK    4  A    between atoms: C_14  and  C_17
REMARK                            x       y       z     vdW  Elec       q    Type
REMARK                         _______ _______ _______ _____ _____    ______ ____
ROOT
ATOM      1  C   UNL     1       0.487  -0.734   0.000  0.00  0.00    +0.000 C 
ATOM     10  C   UNL     1       1.586   0.050   0.000  0.00  0.00    +0.000 C 
ENDROOT
BRANCH  10  11
ATOM     11  C   UNL     1       1.643   1.401   0.000  0.00  0.00    +0.000 A 
ATOM     12  C   UNL     1       2.852   2.002   0.000  0.00  0.00    +0.000 A 
ATOM     13  C   UNL     1       2.985   3.337   0.000  0.00  0.00    +0.000 A 
ATOM     14  C   UNL     1       1.908   4.138   0.000  0.00  0.00    +0.000 A 
ATOM     15  C   UNL     1       0.699   3.553   0.000  0.00  0.00    +0.000 A 
ATOM     16  C   UNL     1       0.570   2.217   0.000  0.00  0.00    +0.000 A 
ATOM     17  C   UNL     1       2.032   5.643   0.000  0.00  0.00    +0.000 C 
ENDBRANCH  10  11
BRANCH   1   2
ATOM      2  C   UNL     1       0.512  -2.103   0.000  0.00  0.00    +0.000 C 
ATOM      3  O   UNL     1       1.593  -2.665   0.000  0.00  0.00    +0.000 OA
BRANCH   2   4
ATOM      4  C   UNL     1      -0.649  -2.841   0.000  0.00  0.00    +0.000 A 
ATOM      5  C   UNL     1      -0.578  -4.192   0.000  0.00  0.00    +0.000 A 
ATOM      6  C   UNL     1      -1.671  -4.972   0.000  0.00  0.00    +0.000 A 
ATOM      7  C   UNL     1      -2.892  -4.421   0.000  0.00  0.00    +0.000 A 
ATOM      8  C   UNL     1      -2.995  -3.086   0.000  0.00  0.00    +0.000 A 
ATOM      9  C   UNL     1      -1.893  -2.316   0.000  0.00  0.00    +0.000 A 
ENDBRANCH   2   4
ENDBRANCH   1   2
TORSDOF 3
