REMARK  Name = Fragment
REMARK  5 active torsions:
REMARK  status: ('A' for Active; 'I' for Inactive)
REMARK    1  A    between atoms: C_1  and  C_2
REMARK    2  A    between atoms: C_2  and  C_4
REMARK    3  A    between atoms: C_10  and  C_11
REMARK    4  A    between atoms: C_14  and  O_17
REMARK    5  A    between atoms: O_17  and  C_18
REMARK                            x       y       z     vdW  Elec       q    Type
REMARK                         _______ _______ _______ _____ _____    ______ ____
ROOT
ATOM      1  C   UNL     1       0.522  -1.403   0.000  0.00  0.00    +0.000 C 
ATOM     10  C   UNL     1       1.606  -0.598   0.000  0.00  0.00    +0.000 C 
ENDROOT
BRANCH  10  11
ATOM     11  C   UNL     1       1.635   0.753  -0.000  0.00  0.00    +0.000 A 
ATOM     12  C   UNL     1       2.827   1.383  -0.000  0.00  0.00    +0.000 A 
ATOM     13  C   UNL     1       2.921   2.721  -0.000  0.00  0.00    +0.000 A 
ATOM     14  C   UNL     1       1.842   3.526  -0.000  0.00  0.00    +0.000 A 
ATOM     15  C   UNL     1       0.653   2.893  -0.000  0.00  0.00    +0.000 A 
ATOM     16  C   UNL     1       0.551   1.553  -0.000  0.00  0.00    +0.000 A 
BRANCH  14  17
ATOM     17  O   UNL     1       2.027   4.887  -0.000  0.00  0.00    +0.000 OA
ATOM     18  C   UNL     1       0.893   5.724  -0.000  0.00  0.00    +0.000 C 
ENDBRANCH  14  17
ENDBRANCH  10  11
BRANCH   1   2
ATOM      2  C   UNL     1       0.574  -2.772   0.000  0.00  0.00    +0.000 C 
ATOM      3  O   UNL     1       1.665  -3.312   0.000  0.00  0.00    +0.000 OA
BRANCH   2   4
ATOM      4  C   UNL     1      -0.573  -3.532   0.000  0.00  0.00    +0.000 A 
ATOM      5  C   UNL     1      -0.476  -4.881   0.000  0.00  0.00    +0.000 A 
ATOM      6  C   UNL     1      -1.553  -5.682   0.000  0.00  0.00    +0.000 A 
ATOM      7  C   UNL     1      -2.784  -5.156   0.000  0.00  0.00    +0.000 A 
ATOM      8  C   UNL     1      -2.913  -3.823   0.000  0.00  0.00    +0.000 A 
ATOM      9  C   UNL     1      -1.827  -3.031   0.000  0.00  0.00    +0.000 A 
ENDBRANCH   2   4
ENDBRANCH   1   2
TORSDOF 4
