REMARK  Name = Fragment
REMARK  4 active torsions:
REMARK  status: ('A' for Active; 'I' for Inactive)
REMARK    1  A    between atoms: C_1  and  C_2
REMARK    2  A    between atoms: C_2  and  C_4
REMARK    3  A    between atoms: C_10  and  C_11
REMARK    4  A    between atoms: C_14  and  N_17
REMARK                            x       y       z     vdW  Elec       q    Type
REMARK                         _______ _______ _______ _____ _____    ______ ____
ROOT
ATOM      1  C   UNL     1       0.480  -0.697   0.000  0.00  0.00    +0.000 C 
ATOM     10  C   UNL     1       1.580   0.084   0.000  0.00  0.00    +0.000 C 
ENDROOT
BRANCH  10  11
ATOM     11  C   UNL     1       1.641   1.435   0.000  0.00  0.00    +0.000 A 
ATOM     12  C   UNL     1       2.853   2.030   0.000  0.00  0.00    +0.000 A 
ATOM     13  C   UNL     1       2.995   3.365   0.000  0.00  0.00    +0.000 A 
ATOM     14  C   UNL     1       1.912   4.155   0.000  0.00  0.00    +0.000 A 
ATOM     15  C   UNL     1       0.696   3.590   0.000  0.00  0.00    +0.000 A 
ATOM     16  C   UNL     1       0.569   2.253   0.000  0.00  0.00    +0.000 A 
BRANCH  14  17
ATOM     17  N   UNL     1       2.036   5.416   0.000  0.00  0.00    +0.000 N 
ATOM     18  H   UNL     1       1.185   6.030   0.000  0.00  0.00    +0.000 HD
ATOM     19  H   UNL     1       2.991   5.852   0.000  0.00  0.00    +0.000 HD
ENDBRANCH  14  17
ENDBRANCH  10  11
BRANCH   1   2
ATOM      2  C   UNL     1       0.502  -2.067   0.000  0.00  0.00    +0.000 C 
ATOM      3  O   UNL     1       1.581  -2.630   0.000  0.00  0.00    +0.000 OA
BRANCH   2   4
ATOM      4  C   UNL     1      -0.660  -2.803   0.000  0.00  0.00    +0.000 A 
ATOM      5  C   UNL     1      -0.592  -4.154   0.000  0.00  0.00    +0.000 A 
ATOM      6  C   UNL     1      -1.687  -4.931   0.000  0.00  0.00    +0.000 A 
ATOM      7  C   UNL     1      -2.906  -4.378   0.000  0.00  0.00    +0.000 A 
ATOM      8  C   UNL     1      -3.007  -3.043   0.000  0.00  0.00    +0.000 A 
ATOM      9  C   UNL     1      -1.904  -2.275   0.000  0.00  0.00    +0.000 A 
ENDBRANCH   2   4
ENDBRANCH   1   2
TORSDOF 4
