REMARK  Name = Fragment
REMARK  3 active torsions:
REMARK  status: ('A' for Active; 'I' for Inactive)
REMARK    1  A    between atoms: C_1  and  C_2
REMARK    2  A    between atoms: C_2  and  C_4
REMARK    3  A    between atoms: C_10  and  C_11
REMARK                            x       y       z     vdW  Elec       q    Type
REMARK                         _______ _______ _______ _____ _____    ______ ____
ROOT
ATOM      2  C   UNL     1       0.647  -1.679   0.000  0.00  0.00    +0.000 C 
ATOM      3  O   UNL     1       1.720  -2.256   0.000  0.00  0.00    +0.000 OA
ENDROOT
BRANCH   2   4
ATOM      4  C   UNL     1      -0.523  -2.403   0.000  0.00  0.00    +0.000 A 
ATOM      5  C   UNL     1      -0.470  -3.754   0.000  0.00  0.00    +0.000 A 
ATOM      6  C   UNL     1      -1.572  -4.522   0.000  0.00  0.00    +0.000 A 
ATOM      7  C   UNL     1      -2.785  -3.954   0.000  0.00  0.00    +0.000 A 
ATOM      8  C   UNL     1      -2.873  -2.617   0.000  0.00  0.00    +0.000 A 
ATOM      9  C   UNL     1      -1.761  -1.862   0.000  0.00  0.00    +0.000 A 
ATOM     17 CL   UNL     1      -4.211  -4.927   0.000  0.00  0.00    +0.000 Cl
ENDBRANCH   2   4
BRANCH   2   1
ATOM      1  C   UNL     1       0.640  -0.310   0.000  0.00  0.00    +0.000 C 
ATOM     10  C   UNL     1       1.749   0.459   0.000  0.00  0.00    +0.000 C 
BRANCH  10  11
ATOM     11  C   UNL     1       1.825   1.810   0.000  0.00  0.00    +0.000 A 
ATOM     12  C   UNL     1       3.044   2.390   0.000  0.00  0.00    +0.000 A 
ATOM     13  C   UNL     1       3.200   3.724   0.000  0.00  0.00    +0.000 A 
ATOM     14  C   UNL     1       2.126   4.525   0.000  0.00  0.00    +0.000 A 
ATOM     15  C   UNL     1       0.904   3.974   0.000  0.00  0.00    +0.000 A 
ATOM     16  C   UNL     1       0.761   2.639   0.000  0.00  0.00    +0.000 A 
ENDBRANCH  10  11
ENDBRANCH   2   1
TORSDOF 3
