REMARK  Name = Fragment
REMARK  6 active torsions:
REMARK  status: ('A' for Active; 'I' for Inactive)
REMARK    1  A    between atoms: C_1  and  C_2
REMARK    2  A    between atoms: C_2  and  C_4
REMARK    3  A    between atoms: C_10  and  C_11
REMARK    4  A    between atoms: C_14  and  N_17
REMARK    5  A    between atoms: N_17  and  C_18
REMARK    6  A    between atoms: N_17  and  C_19
REMARK                            x       y       z     vdW  Elec       q    Type
REMARK                         _______ _______ _______ _____ _____    ______ ____
ROOT
ATOM      1  C   UNL     1       0.502  -1.387   0.000  0.00  0.00    +0.000 C 
ATOM     10  C   UNL     1       1.590  -0.589   0.000  0.00  0.00    +0.000 C 
ENDROOT
BRANCH  10  11
ATOM     11  C   UNL     1       1.627   0.763   0.000  0.00  0.00    +0.000 A 
ATOM     12  C   UNL     1       2.818   1.392   0.000  0.00  0.00    +0.000 A 
ATOM     13  C   UNL     1       2.923   2.730   0.000  0.00  0.00    +0.000 A 
ATOM     14  C   UNL     1       1.853   3.552   0.000  0.00  0.00    +0.000 A 
ATOM     15  C   UNL     1       0.666   2.910  -0.000  0.00  0.00    +0.000 A 
ATOM     16  C   UNL     1       0.551   1.571  -0.000  0.00  0.00    +0.000 A 
BRANCH  14  17
ATOM     17  N   UNL     1       1.954   4.831   0.000  0.00  0.00    +0.000 N 
ATOM     18  C   UNL     1       0.726   5.668   0.000  0.00  0.00    +0.000 C 
ATOM     19  C   UNL     1       3.300   5.462   0.000  0.00  0.00    +0.000 C 
ENDBRANCH  14  17
ENDBRANCH  10  11
BRANCH   1   2
ATOM      2  C   UNL     1       0.545  -2.755   0.000  0.00  0.00    +0.000 C 
ATOM      3  O   UNL     1       1.633  -3.302   0.000  0.00  0.00    +0.000 OA
BRANCH   2   4
ATOM      4  C   UNL     1      -0.606  -3.509  -0.000  0.00  0.00    +0.000 A 
ATOM      5  C   UNL     1      -0.517  -4.858  -0.000  0.00  0.00    +0.000 A 
ATOM      6  C   UNL     1      -1.600  -5.653  -0.000  0.00  0.00    +0.000 A 
ATOM      7  C   UNL     1      -2.827  -5.118  -0.000  0.00  0.00    +0.000 A 
ATOM      8  C   UNL     1      -2.948  -3.784  -0.000  0.00  0.00    +0.000 A 
ATOM      9  C   UNL     1      -1.857  -3.000  -0.000  0.00  0.00    +0.000 A 
ENDBRANCH   2   4
ENDBRANCH   1   2
TORSDOF 4
