REMARK  Name = Fragment
REMARK  3 active torsions:
REMARK  status: ('A' for Active; 'I' for Inactive)
REMARK    1  A    between atoms: C_1  and  C_2
REMARK    2  A    between atoms: C_2  and  C_4
REMARK    3  A    between atoms: C_10  and  C_11
REMARK                            x       y       z     vdW  Elec       q    Type
REMARK                         _______ _______ _______ _____ _____    ______ ____
ROOT
ATOM      1  C   UNL     1       0.467  -0.619   0.000  0.00  0.00    +0.000 C 
ATOM     10  C   UNL     1       1.575   0.153   0.000  0.00  0.00    +0.000 C 
ENDROOT
BRANCH  10  11
ATOM     11  C   UNL     1       1.647   1.504   0.000  0.00  0.00    +0.000 A 
ATOM     12  C   UNL     1       2.865   2.087   0.000  0.00  0.00    +0.000 A 
ATOM     13  C   UNL     1       3.019   3.421   0.000  0.00  0.00    +0.000 A 
ATOM     14  C   UNL     1       1.941   4.218   0.000  0.00  0.00    +0.000 A 
ATOM     15  C   UNL     1       0.720   3.666   0.000  0.00  0.00    +0.000 A 
ATOM     16  C   UNL     1       0.581   2.330   0.000  0.00  0.00    +0.000 A 
ATOM     17 CL   UNL     1       2.124   5.935   0.000  0.00  0.00    +0.000 Cl
ENDBRANCH  10  11
BRANCH   1   2
ATOM      2  C   UNL     1       0.478  -1.988   0.000  0.00  0.00    +0.000 C 
ATOM      3  O   UNL     1       1.553  -2.561   0.000  0.00  0.00    +0.000 OA
BRANCH   2   4
ATOM      4  C   UNL     1      -0.690  -2.715   0.000  0.00  0.00    +0.000 A 
ATOM      5  C   UNL     1      -0.633  -4.066   0.000  0.00  0.00    +0.000 A 
ATOM      6  C   UNL     1      -1.734  -4.835   0.000  0.00  0.00    +0.000 A 
ATOM      7  C   UNL     1      -2.948  -4.272   0.000  0.00  0.00    +0.000 A 
ATOM      8  C   UNL     1      -3.038  -2.936   0.000  0.00  0.00    +0.000 A 
ATOM      9  C   UNL     1      -1.929  -2.177   0.000  0.00  0.00    +0.000 A 
ENDBRANCH   2   4
ENDBRANCH   1   2
TORSDOF 3
