REMARK  Name = Fragment
REMARK  4 active torsions:
REMARK  status: ('A' for Active; 'I' for Inactive)
REMARK    1  A    between atoms: C_1  and  C_2
REMARK    2  A    between atoms: C_2  and  C_4
REMARK    3  A    between atoms: C_7  and  C_17
REMARK    4  A    between atoms: C_10  and  C_11
REMARK                            x       y       z     vdW  Elec       q    Type
REMARK                         _______ _______ _______ _____ _____    ______ ____
ROOT
ATOM      2  C   UNL     1       0.865  -1.557  -0.000  0.00  0.00    +0.000 C 
ATOM      3  O   UNL     1       1.933  -2.143  -0.000  0.00  0.00    +0.000 OA
ENDROOT
BRANCH   2   4
ATOM      4  C   UNL     1      -0.311  -2.270  -0.000  0.00  0.00    +0.000 A 
ATOM      5  C   UNL     1      -0.274  -3.621  -0.000  0.00  0.00    +0.000 A 
ATOM      6  C   UNL     1      -1.385  -4.374  -0.000  0.00  0.00    +0.000 A 
ATOM      7  C   UNL     1      -2.603  -3.810  -0.000  0.00  0.00    +0.000 A 
ATOM      8  C   UNL     1      -2.660  -2.470  -0.000  0.00  0.00    +0.000 A 
ATOM      9  C   UNL     1      -1.545  -1.720  -0.000  0.00  0.00    +0.000 A 
ATOM     17  C   UNL     1      -3.867  -4.635  -0.000  0.00  0.00    +0.000 C 
ENDBRANCH   2   4
BRANCH   2   1
ATOM      1  C   UNL     1       0.869  -0.188  -0.000  0.00  0.00    +0.000 C 
ATOM     10  C   UNL     1       1.985   0.572  -0.000  0.00  0.00    +0.000 C 
BRANCH  10  11
ATOM     11  C   UNL     1       2.071   1.922  -0.000  0.00  0.00    +0.000 A 
ATOM     12  C   UNL     1       3.296   2.492  -0.000  0.00  0.00    +0.000 A 
ATOM     13  C   UNL     1       3.462   3.824  -0.000  0.00  0.00    +0.000 A 
ATOM     14  C   UNL     1       2.394   4.634  -0.000  0.00  0.00    +0.000 A 
ATOM     15  C   UNL     1       1.168   4.094  -0.000  0.00  0.00    +0.000 A 
ATOM     16  C   UNL     1       1.014   2.759  -0.000  0.00  0.00    +0.000 A 
ENDBRANCH  10  11
ENDBRANCH   2   1
TORSDOF 3
