REMARK  Name = Fragment
REMARK  4 active torsions:
REMARK  status: ('A' for Active; 'I' for Inactive)
REMARK    1  A    between atoms: C_1  and  C_2
REMARK    2  A    between atoms: C_2  and  C_4
REMARK    3  A    between atoms: C_7  and  C_17
REMARK    4  A    between atoms: C_10  and  C_11
REMARK                            x       y       z     vdW  Elec       q    Type
REMARK                         _______ _______ _______ _____ _____    ______ ____
ROOT
ATOM      2  C   UNL     1       0.955  -1.681   0.000  0.00  0.00    +0.000 C 
ATOM      3  O   UNL     1       2.024  -2.263   0.000  0.00  0.00    +0.000 OA
ENDROOT
BRANCH   2   4
ATOM      4  C   UNL     1      -0.218  -2.399   0.000  0.00  0.00    +0.000 A 
ATOM      5  C   UNL     1      -0.173  -3.750   0.000  0.00  0.00    +0.000 A 
ATOM      6  C   UNL     1      -1.279  -4.512   0.000  0.00  0.00    +0.000 A 
ATOM      7  C   UNL     1      -2.493  -3.944   0.000  0.00  0.00    +0.000 A 
ATOM      8  C   UNL     1      -2.569  -2.606   0.000  0.00  0.00    +0.000 A 
ATOM      9  C   UNL     1      -1.455  -1.854   0.000  0.00  0.00    +0.000 A 
BRANCH   7  17
ATOM     17  C   UNL     1      -3.583  -4.682   0.000  0.00  0.00    +0.000 C 
ATOM     18  N   UNL     1      -4.545  -5.327   0.000  0.00  0.00    +0.000 NA
ENDBRANCH   7  17
ENDBRANCH   2   4
BRANCH   2   1
ATOM      1  C   UNL     1       0.954  -0.311   0.000  0.00  0.00    +0.000 C 
ATOM     10  C   UNL     1       2.066   0.453   0.000  0.00  0.00    +0.000 C 
BRANCH  10  11
ATOM     11  C   UNL     1       2.148   1.803   0.000  0.00  0.00    +0.000 A 
ATOM     12  C   UNL     1       3.370   2.378   0.000  0.00  0.00    +0.000 A 
ATOM     13  C   UNL     1       3.532   3.711   0.000  0.00  0.00    +0.000 A 
ATOM     14  C   UNL     1       2.461   4.516   0.000  0.00  0.00    +0.000 A 
ATOM     15  C   UNL     1       1.237   3.971   0.000  0.00  0.00    +0.000 A 
ATOM     16  C   UNL     1       1.088   2.637   0.000  0.00  0.00    +0.000 A 
ENDBRANCH  10  11
ENDBRANCH   2   1
TORSDOF 4
