REMARK  Name = Fragment
REMARK  4 active torsions:
REMARK  status: ('A' for Active; 'I' for Inactive)
REMARK    1  A    between atoms: C_1  and  C_2
REMARK    2  A    between atoms: C_2  and  C_4
REMARK    3  A    between atoms: C_10  and  C_11
REMARK    4  A    between atoms: C_14  and  N_17
REMARK                            x       y       z     vdW  Elec       q    Type
REMARK                         _______ _______ _______ _____ _____    ______ ____
ROOT
ATOM      1  C   UNL     1      -0.514   0.820   0.000  0.00  0.00    +0.000 C 
ATOM     10  C   UNL     1      -1.615   0.040   0.000  0.00  0.00    +0.000 C 
ENDROOT
BRANCH  10  11
ATOM     11  C   UNL     1      -1.661  -1.311   0.000  0.00  0.00    +0.000 A 
ATOM     12  C   UNL     1      -2.859  -1.930   0.000  0.00  0.00    +0.000 A 
ATOM     13  C   UNL     1      -2.974  -3.268   0.000  0.00  0.00    +0.000 A 
ATOM     14  C   UNL     1      -1.893  -4.070   0.000  0.00  0.00    +0.000 A 
ATOM     15  C   UNL     1      -0.694  -3.457   0.000  0.00  0.00    +0.000 A 
ATOM     16  C   UNL     1      -0.583  -2.119   0.000  0.00  0.00    +0.000 A 
BRANCH  14  17
ATOM     17  N   UNL     1      -1.991  -5.323   0.000  0.00  0.00    +0.000 N 
ATOM     18  O   UNL     1      -0.949  -6.124   0.000  0.00  0.00    +0.000 OA
ATOM     19  O   UNL     1      -3.144  -5.952   0.000  0.00  0.00    +0.000 OA
ENDBRANCH  14  17
ENDBRANCH  10  11
BRANCH   1   2
ATOM      2  C   UNL     1      -0.524   2.188   0.000  0.00  0.00    +0.000 C 
ATOM      3  O   UNL     1      -1.589   2.778   0.000  0.00  0.00    +0.000 OA
BRANCH   2   4
ATOM      4  C   UNL     1       0.649   2.909   0.000  0.00  0.00    +0.000 A 
ATOM      5  C   UNL     1       0.602   4.261   0.000  0.00  0.00    +0.000 A 
ATOM      6  C   UNL     1       1.707   5.024   0.000  0.00  0.00    +0.000 A 
ATOM      7  C   UNL     1       2.918   4.455   0.000  0.00  0.00    +0.000 A 
ATOM      8  C   UNL     1       3.000   3.118   0.000  0.00  0.00    +0.000 A 
ATOM      9  C   UNL     1       1.887   2.366   0.000  0.00  0.00    +0.000 A 
ENDBRANCH   2   4
ENDBRANCH   1   2
TORSDOF 4
