REMARK  Name = Fragment
REMARK  3 active torsions:
REMARK  status: ('A' for Active; 'I' for Inactive)
REMARK    1  A    between atoms: C_1  and  C_2
REMARK    2  A    between atoms: C_2  and  C_4
REMARK    3  A    between atoms: C_10  and  C_11
REMARK                            x       y       z     vdW  Elec       q    Type
REMARK                         _______ _______ _______ _____ _____    ______ ____
ROOT
ATOM      1  C   UNL     1       0.470  -0.310   0.000  0.00  0.00    +0.000 C 
ATOM     10  C   UNL     1       1.578   0.460   0.000  0.00  0.00    +0.000 C 
ENDROOT
BRANCH  10  11
ATOM     11  C   UNL     1       1.652   1.811   0.000  0.00  0.00    +0.000 A 
ATOM     12  C   UNL     1       2.871   2.393   0.000  0.00  0.00    +0.000 A 
ATOM     13  C   UNL     1       3.025   3.726   0.000  0.00  0.00    +0.000 A 
ATOM     14  C   UNL     1       1.950   4.526   0.000  0.00  0.00    +0.000 A 
ATOM     15  C   UNL     1       0.729   3.974   0.000  0.00  0.00    +0.000 A 
ATOM     16  C   UNL     1       0.587   2.639   0.000  0.00  0.00    +0.000 A 
ENDBRANCH  10  11
BRANCH   1   2
ATOM      2  C   UNL     1       0.478  -1.680   0.000  0.00  0.00    +0.000 C 
ATOM      3  O   UNL     1       1.552  -2.254   0.000  0.00  0.00    +0.000 OA
BRANCH   2   4
ATOM      4  C   UNL     1      -0.691  -2.404   0.000  0.00  0.00    +0.000 A 
ATOM      5  C   UNL     1      -0.636  -3.756   0.000  0.00  0.00    +0.000 A 
ATOM      6  C   UNL     1      -1.739  -4.522   0.000  0.00  0.00    +0.000 A 
ATOM      7  C   UNL     1      -2.953  -3.957   0.000  0.00  0.00    +0.000 A 
ATOM      8  C   UNL     1      -3.039  -2.621   0.000  0.00  0.00    +0.000 A 
ATOM      9  C   UNL     1      -1.929  -1.864   0.000  0.00  0.00    +0.000 A 
ENDBRANCH   2   4
ENDBRANCH   1   2
TORSDOF 3
