REMARK  Name = Fragment
REMARK  4 active torsions:
REMARK  status: ('A' for Active; 'I' for Inactive)
REMARK    1  A    between atoms: C_1  and  C_2
REMARK    2  A    between atoms: C_2  and  C_4
REMARK    3  A    between atoms: C_7  and  N_17
REMARK    4  A    between atoms: C_10  and  C_11
REMARK                            x       y       z     vdW  Elec       q    Type
REMARK                         _______ _______ _______ _____ _____    ______ ____
ROOT
ATOM      2  C   UNL     1      -1.090   1.536   0.000  0.00  0.00    +0.000 C 
ATOM      3  O   UNL     1      -2.172   2.095   0.000  0.00  0.00    +0.000 OA
ENDROOT
BRANCH   2   4
ATOM      4  C   UNL     1       0.087   2.244   0.000  0.00  0.00    +0.000 A 
ATOM      5  C   UNL     1       0.061   3.594   0.000  0.00  0.00    +0.000 A 
ATOM      6  C   UNL     1       1.181   4.335   0.000  0.00  0.00    +0.000 A 
ATOM      7  C   UNL     1       2.403   3.772   0.000  0.00  0.00    +0.000 A 
ATOM      8  C   UNL     1       2.438   2.428   0.000  0.00  0.00    +0.000 A 
ATOM      9  C   UNL     1       1.317   1.689   0.000  0.00  0.00    +0.000 A 
BRANCH   7  17
ATOM     17  N   UNL     1       3.459   4.455   0.000  0.00  0.00    +0.000 N 
ATOM     18  O   UNL     1       4.659   3.920   0.000  0.00  0.00    +0.000 OA
ATOM     19  O   UNL     1       3.457   5.767   0.000  0.00  0.00    +0.000 OA
ENDBRANCH   7  17
ENDBRANCH   2   4
BRANCH   2   1
ATOM      1  C   UNL     1      -1.089   0.166   0.000  0.00  0.00    +0.000 C 
ATOM     10  C   UNL     1      -2.198  -0.605   0.000  0.00  0.00    +0.000 C 
BRANCH  10  11
ATOM     11  C   UNL     1      -2.273  -1.956   0.000  0.00  0.00    +0.000 A 
ATOM     12  C   UNL     1      -3.492  -2.536   0.000  0.00  0.00    +0.000 A 
ATOM     13  C   UNL     1      -3.648  -3.870   0.000  0.00  0.00    +0.000 A 
ATOM     14  C   UNL     1      -2.574  -4.671   0.000  0.00  0.00    +0.000 A 
ATOM     15  C   UNL     1      -1.352  -4.120   0.000  0.00  0.00    +0.000 A 
ATOM     16  C   UNL     1      -1.209  -2.785   0.000  0.00  0.00    +0.000 A 
ENDBRANCH  10  11
ENDBRANCH   2   1
TORSDOF 4
