REMARK  Name = Fragment
REMARK  7 active torsions:
REMARK  status: ('A' for Active; 'I' for Inactive)
REMARK    1  A    between atoms: C_1  and  C_2
REMARK    2  A    between atoms: C_2  and  C_4
REMARK    3  A    between atoms: C_10  and  C_11
REMARK    4  A    between atoms: C_14  and  C_17
REMARK    5  A    between atoms: C_17  and  O_19
REMARK    6  A    between atoms: O_19  and  C_20
REMARK    7  A    between atoms: C_20  and  C_21
REMARK                            x       y       z     vdW  Elec       q    Type
REMARK                         _______ _______ _______ _____ _____    ______ ____
ROOT
ATOM     11  C   UNL     1       0.971  -0.033  -0.000  0.00  0.00    +0.000 A 
ATOM     12  C   UNL     1       2.148   0.626  -0.000  0.00  0.00    +0.000 A 
ATOM     13  C   UNL     1       2.219   1.967  -0.000  0.00  0.00    +0.000 A 
ATOM     14  C   UNL     1       1.105   2.720  -0.000  0.00  0.00    +0.000 A 
ATOM     15  C   UNL     1      -0.076   2.075  -0.000  0.00  0.00    +0.000 A 
ATOM     16  C   UNL     1      -0.137   0.733  -0.000  0.00  0.00    +0.000 A 
ENDROOT
BRANCH  11  10
ATOM      1  C   UNL     1      -0.082  -2.220  -0.000  0.00  0.00    +0.000 C 
ATOM     10  C   UNL     1       0.978  -1.385  -0.000  0.00  0.00    +0.000 C 
BRANCH   1   2
ATOM      2  C   UNL     1       0.007  -3.587  -0.000  0.00  0.00    +0.000 C 
ATOM      3  O   UNL     1       1.114  -4.096  -0.000  0.00  0.00    +0.000 OA
BRANCH   2   4
ATOM      4  C   UNL     1      -1.117  -4.380  -0.000  0.00  0.00    +0.000 A 
ATOM      5  C   UNL     1      -0.982  -5.725  -0.000  0.00  0.00    +0.000 A 
ATOM      6  C   UNL     1      -2.037  -6.556  -0.000  0.00  0.00    +0.000 A 
ATOM      7  C   UNL     1      -3.282  -6.064  -0.000  0.00  0.00    +0.000 A 
ATOM      8  C   UNL     1      -3.448  -4.736  -0.000  0.00  0.00    +0.000 A 
ATOM      9  C   UNL     1      -2.385  -3.914  -0.000  0.00  0.00    +0.000 A 
ENDBRANCH   2   4
ENDBRANCH   1   2
ENDBRANCH  11  10
BRANCH  14  17
ATOM     17  C   UNL     1       1.193   4.086  -0.000  0.00  0.00    +0.000 C 
ATOM     18  O   UNL     1       0.186   4.768  -0.000  0.00  0.00    +0.000 OA
BRANCH  17  19
ATOM     19  O   UNL     1       2.420   4.705  -0.000  0.00  0.00    +0.000 OA
BRANCH  19  20
ATOM     20  C   UNL     1       2.475   6.107   0.000  0.00  0.00    +0.000 C 
ATOM     21  C   UNL     1       3.939   6.538   0.000  0.00  0.00    +0.000 C 
ENDBRANCH  19  20
ENDBRANCH  17  19
ENDBRANCH  14  17
TORSDOF 6
