REMARK  Name = Fragment
REMARK  4 active torsions:
REMARK  status: ('A' for Active; 'I' for Inactive)
REMARK    1  A    between atoms: C_1  and  C_2
REMARK    2  A    between atoms: C_2  and  C_4
REMARK    3  A    between atoms: C_7  and  O_17
REMARK    4  A    between atoms: C_10  and  C_11
REMARK                            x       y       z     vdW  Elec       q    Type
REMARK                         _______ _______ _______ _____ _____    ______ ____
ROOT
ATOM      2  C   UNL     1       0.888  -1.687   0.000  0.00  0.00    +0.000 C 
ATOM      3  O   UNL     1       1.956  -2.272   0.000  0.00  0.00    +0.000 OA
ENDROOT
BRANCH   2   4
ATOM      4  C   UNL     1      -0.288  -2.401  -0.000  0.00  0.00    +0.000 A 
ATOM      5  C   UNL     1      -0.251  -3.751  -0.000  0.00  0.00    +0.000 A 
ATOM      6  C   UNL     1      -1.364  -4.502  -0.000  0.00  0.00    +0.000 A 
ATOM      7  C   UNL     1      -2.584  -3.945  -0.000  0.00  0.00    +0.000 A 
ATOM      8  C   UNL     1      -2.635  -2.605  -0.000  0.00  0.00    +0.000 A 
ATOM      9  C   UNL     1      -1.522  -1.853  -0.000  0.00  0.00    +0.000 A 
BRANCH   7  17
ATOM     17  O   UNL     1      -3.718  -4.697  -0.001  0.00  0.00    +0.000 OA
ATOM     18  H   UNL     1      -4.489  -4.107  -0.001  0.00  0.00    +0.000 HD
ENDBRANCH   7  17
ENDBRANCH   2   4
BRANCH   2   1
ATOM      1  C   UNL     1       0.890  -0.318   0.000  0.00  0.00    +0.000 C 
ATOM     10  C   UNL     1       2.005   0.444   0.000  0.00  0.00    +0.000 C 
BRANCH  10  11
ATOM     11  C   UNL     1       2.089   1.794   0.000  0.00  0.00    +0.000 A 
ATOM     12  C   UNL     1       3.312   2.367   0.000  0.00  0.00    +0.000 A 
ATOM     13  C   UNL     1       3.475   3.699   0.001  0.00  0.00    +0.000 A 
ATOM     14  C   UNL     1       2.406   4.507   0.000  0.00  0.00    +0.000 A 
ATOM     15  C   UNL     1       1.181   3.964   0.000  0.00  0.00    +0.000 A 
ATOM     16  C   UNL     1       1.030   2.630   0.000  0.00  0.00    +0.000 A 
ENDBRANCH  10  11
ENDBRANCH   2   1
TORSDOF 4
