REMARK  Name = Fragment
REMARK  4 active torsions:
REMARK  status: ('A' for Active; 'I' for Inactive)
REMARK    1  A    between atoms: C_1  and  C_2
REMARK    2  A    between atoms: C_2  and  C_4
REMARK    3  A    between atoms: C_7  and  N_17
REMARK    4  A    between atoms: C_10  and  C_11
REMARK                            x       y       z     vdW  Elec       q    Type
REMARK                         _______ _______ _______ _____ _____    ______ ____
ROOT
ATOM      2  C   UNL     1       0.922  -1.642   0.000  0.00  0.00    +0.000 C 
ATOM      3  O   UNL     1       1.991  -2.226   0.000  0.00  0.00    +0.000 OA
ENDROOT
BRANCH   2   4
ATOM      4  C   UNL     1      -0.253  -2.357   0.000  0.00  0.00    +0.000 A 
ATOM      5  C   UNL     1      -0.211  -3.709   0.000  0.00  0.00    +0.000 A 
ATOM      6  C   UNL     1      -1.319  -4.467   0.000  0.00  0.00    +0.000 A 
ATOM      7  C   UNL     1      -2.529  -3.893   0.000  0.00  0.00    +0.000 A 
ATOM      8  C   UNL     1      -2.604  -2.555   0.000  0.00  0.00    +0.000 A 
ATOM      9  C   UNL     1      -1.488  -1.808   0.000  0.00  0.00    +0.000 A 
BRANCH   7  17
ATOM     17  N   UNL     1      -3.581  -4.600   0.000  0.00  0.00    +0.000 N 
ATOM     18  H   UNL     1      -4.525  -4.142   0.000  0.00  0.00    +0.000 HD
ATOM     19  H   UNL     1      -3.511  -5.647   0.000  0.00  0.00    +0.000 HD
ENDBRANCH   7  17
ENDBRANCH   2   4
BRANCH   2   1
ATOM      1  C   UNL     1       0.924  -0.273   0.000  0.00  0.00    +0.000 C 
ATOM     10  C   UNL     1       2.039   0.489   0.000  0.00  0.00    +0.000 C 
BRANCH  10  11
ATOM     11  C   UNL     1       2.123   1.839   0.000  0.00  0.00    +0.000 A 
ATOM     12  C   UNL     1       3.347   2.411   0.000  0.00  0.00    +0.000 A 
ATOM     13  C   UNL     1       3.511   3.744   0.000  0.00  0.00    +0.000 A 
ATOM     14  C   UNL     1       2.442   4.552   0.000  0.00  0.00    +0.000 A 
ATOM     15  C   UNL     1       1.217   4.009   0.000  0.00  0.00    +0.000 A 
ATOM     16  C   UNL     1       1.065   2.675   0.000  0.00  0.00    +0.000 A 
ENDBRANCH  10  11
ENDBRANCH   2   1
TORSDOF 4
