REMARK  Name = Fragment
REMARK  3 active torsions:
REMARK  status: ('A' for Active; 'I' for Inactive)
REMARK    1  A    between atoms: C_1  and  C_2
REMARK    2  A    between atoms: C_2  and  C_4
REMARK    3  A    between atoms: C_10  and  C_11
REMARK                            x       y       z     vdW  Elec       q    Type
REMARK                         _______ _______ _______ _____ _____    ______ ____
ROOT
ATOM      2  C   UNL     1       0.484  -1.680   0.000  0.00  0.00    +0.000 C 
ATOM      3  O   UNL     1       1.557  -2.256   0.000  0.00  0.00    +0.000 OA
ENDROOT
BRANCH   2   4
ATOM      4  C   UNL     1      -0.685  -2.404   0.000  0.00  0.00    +0.000 A 
ATOM      5  C   UNL     1      -0.632  -3.756   0.000  0.00  0.00    +0.000 A 
ATOM      6  C   UNL     1      -1.735  -4.522   0.000  0.00  0.00    +0.000 A 
ATOM      7  C   UNL     1      -2.951  -3.960   0.000  0.00  0.00    +0.000 A 
ATOM      8  C   UNL     1      -3.033  -2.623   0.000  0.00  0.00    +0.000 A 
ATOM      9  C   UNL     1      -1.924  -1.865   0.000  0.00  0.00    +0.000 A 
ATOM     17  F   UNL     1      -4.044  -4.707   0.000  0.00  0.00    +0.000 F 
ENDBRANCH   2   4
BRANCH   2   1
ATOM      1  C   UNL     1       0.476  -0.310   0.000  0.00  0.00    +0.000 C 
ATOM     10  C   UNL     1       1.585   0.460   0.000  0.00  0.00    +0.000 C 
BRANCH  10  11
ATOM     11  C   UNL     1       1.659   1.810   0.000  0.00  0.00    +0.000 A 
ATOM     12  C   UNL     1       2.878   2.391   0.000  0.00  0.00    +0.000 A 
ATOM     13  C   UNL     1       3.033   3.725   0.000  0.00  0.00    +0.000 A 
ATOM     14  C   UNL     1       1.958   4.525   0.000  0.00  0.00    +0.000 A 
ATOM     15  C   UNL     1       0.737   3.974   0.000  0.00  0.00    +0.000 A 
ATOM     16  C   UNL     1       0.595   2.638   0.000  0.00  0.00    +0.000 A 
ENDBRANCH  10  11
ENDBRANCH   2   1
TORSDOF 3
