REMARK  Name = Fragment
REMARK  7 active torsions:
REMARK  status: ('A' for Active; 'I' for Inactive)
REMARK    1  A    between atoms: C_1  and  C_2
REMARK    2  A    between atoms: C_2  and  C_4
REMARK    3  A    between atoms: C_10  and  C_11
REMARK    4  A    between atoms: C_14  and  SI_17
REMARK    5  A    between atoms: SI_17  and  C_18
REMARK    6  A    between atoms: SI_17  and  C_19
REMARK    7  A    between atoms: SI_17  and  C_20
REMARK                            x       y       z     vdW  Elec       q    Type
REMARK                         _______ _______ _______ _____ _____    ______ ____
ROOT
ATOM      1  C   UNL     1       0.336  -1.588   0.012  0.00  0.00    +0.000 C 
ATOM     10  C   UNL     1       1.423  -0.788   0.016  0.00  0.00    +0.000 C 
ENDROOT
BRANCH  10  11
ATOM     11  C   UNL     1       1.460   0.564   0.011  0.00  0.00    +0.000 A 
ATOM     12  C   UNL     1       2.660   1.183   0.014  0.00  0.00    +0.000 A 
ATOM     13  C   UNL     1       2.774   2.520   0.009  0.00  0.00    +0.000 A 
ATOM     14  C   UNL     1       1.685   3.305   0.000  0.00  0.00    +0.000 A 
ATOM     15  C   UNL     1       0.485   2.703  -0.002  0.00  0.00    +0.000 A 
ATOM     16  C   UNL     1       0.376   1.365   0.004  0.00  0.00    +0.000 A 
BRANCH  14  17
ATOM     17 SI   UNL     1       1.806   5.183  -0.008  0.00  0.00    +0.000 Si
ATOM     18  C   UNL     1       3.599   5.753  -0.054  0.00  0.00    +0.000 C 
ATOM     19  C   UNL     1       0.986   5.845   1.552  0.00  0.00    +0.000 C 
ATOM     20  C   UNL     1       0.913   5.839  -1.530  0.00  0.00    +0.000 C 
ENDBRANCH  14  17
ENDBRANCH  10  11
BRANCH   1   2
ATOM      2  C   UNL     1       0.382  -2.957   0.016  0.00  0.00    +0.000 C 
ATOM      3  O   UNL     1       1.471  -3.502   0.025  0.00  0.00    +0.000 OA
BRANCH   2   4
ATOM      4  C   UNL     1      -0.768  -3.712   0.011  0.00  0.00    +0.000 A 
ATOM      5  C   UNL     1      -0.677  -5.061   0.015  0.00  0.00    +0.000 A 
ATOM      6  C   UNL     1      -1.758  -5.858   0.010  0.00  0.00    +0.000 A 
ATOM      7  C   UNL     1      -2.987  -5.325   0.000  0.00  0.00    +0.000 A 
ATOM      8  C   UNL     1      -3.110  -3.992  -0.004  0.00  0.00    +0.000 A 
ATOM      9  C   UNL     1      -2.020  -3.205   0.002  0.00  0.00    +0.000 A 
ENDBRANCH   2   4
ENDBRANCH   1   2
TORSDOF 4
