REMARK  Name = Fragment
REMARK  4 active torsions:
REMARK  status: ('A' for Active; 'I' for Inactive)
REMARK    1  A    between atoms: C_1  and  C_2
REMARK    2  A    between atoms: C_2  and  C_4
REMARK    3  A    between atoms: C_10  and  C_11
REMARK    4  A    between atoms: C_14  and  C_17
REMARK                            x       y       z     vdW  Elec       q    Type
REMARK                         _______ _______ _______ _____ _____    ______ ____
ROOT
ATOM      1  C   UNL     1       0.484  -0.776  -0.000  0.00  0.00    +0.000 C 
ATOM     10  C   UNL     1       1.584   0.006  -0.000  0.00  0.00    +0.000 C 
ENDROOT
BRANCH  10  11
ATOM     11  C   UNL     1       1.642   1.357  -0.000  0.00  0.00    +0.000 A 
ATOM     12  C   UNL     1       2.850   1.958  -0.000  0.00  0.00    +0.000 A 
ATOM     13  C   UNL     1       2.985   3.294  -0.000  0.00  0.00    +0.000 A 
ATOM     14  C   UNL     1       1.910   4.099  -0.000  0.00  0.00    +0.000 A 
ATOM     15  C   UNL     1       0.702   3.511  -0.000  0.00  0.00    +0.000 A 
ATOM     16  C   UNL     1       0.571   2.175  -0.000  0.00  0.00    +0.000 A 
BRANCH  14  17
ATOM     17  C   UNL     1       2.024   5.605  -0.000  0.00  0.00    +0.000 C 
ATOM     18  F   UNL     1       3.272   6.046  -0.001  0.00  0.00    +0.000 F 
ATOM     19  F   UNL     1       1.420   6.112   1.064  0.00  0.00    +0.000 F 
ATOM     20  F   UNL     1       1.419   6.112  -1.064  0.00  0.00    +0.000 F 
ENDBRANCH  14  17
ENDBRANCH  10  11
BRANCH   1   2
ATOM      2  C   UNL     1       0.508  -2.146  -0.000  0.00  0.00    +0.000 C 
ATOM      3  O   UNL     1       1.589  -2.707  -0.000  0.00  0.00    +0.000 OA
BRANCH   2   4
ATOM      4  C   UNL     1      -0.653  -2.883  -0.000  0.00  0.00    +0.000 A 
ATOM      5  C   UNL     1      -0.583  -4.234  -0.000  0.00  0.00    +0.000 A 
ATOM      6  C   UNL     1      -1.677  -5.013  -0.000  0.00  0.00    +0.000 A 
ATOM      7  C   UNL     1      -2.897  -4.461  -0.000  0.00  0.00    +0.000 A 
ATOM      8  C   UNL     1      -2.999  -3.126  -0.000  0.00  0.00    +0.000 A 
ATOM      9  C   UNL     1      -1.898  -2.357  -0.000  0.00  0.00    +0.000 A 
ENDBRANCH   2   4
ENDBRANCH   1   2
TORSDOF 4
