REMARK  Name = Fragment
REMARK  6 active torsions:
REMARK  status: ('A' for Active; 'I' for Inactive)
REMARK    1  A    between atoms: C_1  and  C_2
REMARK    2  A    between atoms: C_2  and  C_4
REMARK    3  A    between atoms: C_7  and  N_17
REMARK    4  A    between atoms: C_10  and  C_11
REMARK    5  A    between atoms: N_17  and  C_18
REMARK    6  A    between atoms: N_17  and  C_19
REMARK                            x       y       z     vdW  Elec       q    Type
REMARK                         _______ _______ _______ _____ _____    ______ ____
ROOT
ATOM      2  C   UNL     1       1.543  -1.196   0.000  0.00  0.00    +0.000 C 
ATOM      3  O   UNL     1       2.603  -1.795   0.000  0.00  0.00    +0.000 OA
ENDROOT
BRANCH   2   4
ATOM      4  C   UNL     1       0.358  -1.894   0.000  0.00  0.00    +0.000 A 
ATOM      5  C   UNL     1       0.368  -3.242   0.000  0.00  0.00    +0.000 A 
ATOM      6  C   UNL     1      -0.758  -3.975   0.000  0.00  0.00    +0.000 A 
ATOM      7  C   UNL     1      -1.992  -3.431   0.000  0.00  0.00    +0.000 A 
ATOM      8  C   UNL     1      -1.992  -2.082   0.000  0.00  0.00    +0.000 A 
ATOM      9  C   UNL     1      -0.870  -1.341   0.000  0.00  0.00    +0.000 A 
BRANCH   7  17
ATOM     17  N   UNL     1      -3.067  -4.131   0.000  0.00  0.00    +0.000 N 
ATOM     18  C   UNL     1      -4.389  -3.453   0.000  0.00  0.00    +0.000 C 
ATOM     19  C   UNL     1      -2.978  -5.615   0.000  0.00  0.00    +0.000 C 
ENDBRANCH   7  17
ENDBRANCH   2   4
BRANCH   2   1
ATOM      1  C   UNL     1       1.562   0.173   0.000  0.00  0.00    +0.000 C 
ATOM     10  C   UNL     1       2.686   0.921   0.000  0.00  0.00    +0.000 C 
BRANCH  10  11
ATOM     11  C   UNL     1       2.787   2.270   0.000  0.00  0.00    +0.000 A 
ATOM     12  C   UNL     1       4.017   2.828   0.000  0.00  0.00    +0.000 A 
ATOM     13  C   UNL     1       4.197   4.158   0.000  0.00  0.00    +0.000 A 
ATOM     14  C   UNL     1       3.138   4.979   0.000  0.00  0.00    +0.000 A 
ATOM     15  C   UNL     1       1.906   4.451   0.000  0.00  0.00    +0.000 A 
ATOM     16  C   UNL     1       1.738   3.119   0.000  0.00  0.00    +0.000 A 
ENDBRANCH  10  11
ENDBRANCH   2   1
TORSDOF 4
