REMARK  Name = Fragment
REMARK  7 active torsions:
REMARK  status: ('A' for Active; 'I' for Inactive)
REMARK    1  A    between atoms: C_1  and  C_2
REMARK    2  A    between atoms: C_2  and  C_4
REMARK    3  A    between atoms: C_7  and  SI_17
REMARK    4  A    between atoms: C_10  and  C_11
REMARK    5  A    between atoms: SI_17  and  C_18
REMARK    6  A    between atoms: SI_17  and  C_19
REMARK    7  A    between atoms: SI_17  and  C_20
REMARK                            x       y       z     vdW  Elec       q    Type
REMARK                         _______ _______ _______ _____ _____    ______ ____
ROOT
ATOM      2  C   UNL     1       1.672  -0.828  -0.019  0.00  0.00    +0.000 C 
ATOM      3  O   UNL     1       2.733  -1.424  -0.028  0.00  0.00    +0.000 OA
ENDROOT
BRANCH   2   4
ATOM      4  C   UNL     1       0.488  -1.528  -0.014  0.00  0.00    +0.000 A 
ATOM      5  C   UNL     1       0.512  -2.879  -0.017  0.00  0.00    +0.000 A 
ATOM      6  C   UNL     1      -0.607  -3.621  -0.011  0.00  0.00    +0.000 A 
ATOM      7  C   UNL     1      -1.818  -3.046  -0.001  0.00  0.00    +0.000 A 
ATOM      8  C   UNL     1      -1.862  -1.705   0.000  0.00  0.00    +0.000 A 
ATOM      9  C   UNL     1      -0.740  -0.967  -0.006  0.00  0.00    +0.000 A 
BRANCH   7  17
ATOM     17 SI   UNL     1      -3.408  -4.053   0.008  0.00  0.00    +0.000 Si
ATOM     18  C   UNL     1      -3.047  -5.899   0.056  0.00  0.00    +0.000 C 
ATOM     19  C   UNL     1      -4.382  -3.653  -1.552  0.00  0.00    +0.000 C 
ATOM     20  C   UNL     1      -4.412  -3.582   1.529  0.00  0.00    +0.000 C 
ENDBRANCH   7  17
ENDBRANCH   2   4
BRANCH   2   1
ATOM      1  C   UNL     1       1.690   0.542  -0.015  0.00  0.00    +0.000 C 
ATOM     10  C   UNL     1       2.814   1.290  -0.018  0.00  0.00    +0.000 C 
BRANCH  10  11
ATOM     11  C   UNL     1       2.916   2.638  -0.012  0.00  0.00    +0.000 A 
ATOM     12  C   UNL     1       4.146   3.195  -0.015  0.00  0.00    +0.000 A 
ATOM     13  C   UNL     1       4.327   4.525  -0.009  0.00  0.00    +0.000 A 
ATOM     14  C   UNL     1       3.269   5.347  -0.001  0.00  0.00    +0.000 A 
ATOM     15  C   UNL     1       2.037   4.820   0.002  0.00  0.00    +0.000 A 
ATOM     16  C   UNL     1       1.868   3.488  -0.004  0.00  0.00    +0.000 A 
ENDBRANCH  10  11
ENDBRANCH   2   1
TORSDOF 4
