REMARK  Name = Fragment
REMARK  7 active torsions:
REMARK  status: ('A' for Active; 'I' for Inactive)
REMARK    1  A    between atoms: C_1  and  C_2
REMARK    2  A    between atoms: C_2  and  C_4
REMARK    3  A    between atoms: C_7  and  C_17
REMARK    4  A    between atoms: C_10  and  C_11
REMARK    5  A    between atoms: C_17  and  O_19
REMARK    6  A    between atoms: O_19  and  C_20
REMARK    7  A    between atoms: C_20  and  C_21
REMARK                            x       y       z     vdW  Elec       q    Type
REMARK                         _______ _______ _______ _____ _____    ______ ____
ROOT
ATOM      4  C   UNL     1      -0.112  -0.748  -0.000  0.00  0.00    +0.000 A 
ATOM      5  C   UNL     1      -0.091  -2.099  -0.000  0.00  0.00    +0.000 A 
ATOM      6  C   UNL     1       1.051  -2.807  -0.000  0.00  0.00    +0.000 A 
ATOM      7  C   UNL     1       2.248  -2.196  -0.000  0.00  0.00    +0.000 A 
ATOM      8  C   UNL     1       2.246  -0.851  -0.000  0.00  0.00    +0.000 A 
ATOM      9  C   UNL     1       1.099  -0.151  -0.000  0.00  0.00    +0.000 A 
ENDROOT
BRANCH   4   2
ATOM      2  C   UNL     1      -1.316  -0.085  -0.000  0.00  0.00    +0.000 C 
ATOM      3  O   UNL     1      -2.358  -0.715  -0.000  0.00  0.00    +0.000 OA
BRANCH   2   1
ATOM      1  C   UNL     1      -1.378   1.283  -0.000  0.00  0.00    +0.000 C 
ATOM     10  C   UNL     1      -2.525   1.996  -0.000  0.00  0.00    +0.000 C 
BRANCH  10  11
ATOM     11  C   UNL     1      -2.668   3.341  -0.000  0.00  0.00    +0.000 A 
ATOM     12  C   UNL     1      -3.915   3.859  -0.000  0.00  0.00    +0.000 A 
ATOM     13  C   UNL     1      -4.137   5.183  -0.000  0.00  0.00    +0.000 A 
ATOM     14  C   UNL     1      -3.104   6.037  -0.000  0.00  0.00    +0.000 A 
ATOM     15  C   UNL     1      -1.857   5.548  -0.000  0.00  0.00    +0.000 A 
ATOM     16  C   UNL     1      -1.647   4.222  -0.000  0.00  0.00    +0.000 A 
ENDBRANCH  10  11
ENDBRANCH   2   1
ENDBRANCH   4   2
BRANCH   7  17
ATOM     17  C   UNL     1       3.403  -2.929  -0.000  0.00  0.00    +0.000 C 
ATOM     18  O   UNL     1       4.485  -2.373  -0.000  0.00  0.00    +0.000 OA
BRANCH  17  19
ATOM     19  O   UNL     1       3.357  -4.303  -0.000  0.00  0.00    +0.000 OA
BRANCH  19  20
ATOM     20  C   UNL     1       4.561  -5.024   0.000  0.00  0.00    +0.000 C 
ATOM     21  C   UNL     1       4.237  -6.515   0.000  0.00  0.00    +0.000 C 
ENDBRANCH  19  20
ENDBRANCH  17  19
ENDBRANCH   7  17
TORSDOF 6
