REMARK  Name = Fragment
REMARK  4 active torsions:
REMARK  status: ('A' for Active; 'I' for Inactive)
REMARK    1  A    between atoms: C_1  and  C_2
REMARK    2  A    between atoms: C_2  and  C_4
REMARK    3  A    between atoms: C_7  and  C_17
REMARK    4  A    between atoms: C_10  and  C_11
REMARK                            x       y       z     vdW  Elec       q    Type
REMARK                         _______ _______ _______ _____ _____    ______ ____
ROOT
ATOM      2  C   UNL     1       0.933  -1.452   0.000  0.00  0.00    +0.000 C 
ATOM      3  O   UNL     1       2.000  -2.038   0.000  0.00  0.00    +0.000 OA
ENDROOT
BRANCH   2   4
ATOM      4  C   UNL     1      -0.243  -2.166   0.000  0.00  0.00    +0.000 A 
ATOM      5  C   UNL     1      -0.206  -3.517   0.000  0.00  0.00    +0.000 A 
ATOM      6  C   UNL     1      -1.317  -4.271   0.000  0.00  0.00    +0.000 A 
ATOM      7  C   UNL     1      -2.537  -3.712   0.000  0.00  0.00    +0.000 A 
ATOM      8  C   UNL     1      -2.590  -2.371   0.000  0.00  0.00    +0.000 A 
ATOM      9  C   UNL     1      -1.477  -1.619   0.000  0.00  0.00    +0.000 A 
BRANCH   7  17
ATOM     17  C   UNL     1      -3.807  -4.529   0.000  0.00  0.00    +0.000 C 
ATOM     18  F   UNL     1      -3.602  -5.836   0.001  0.00  0.00    +0.000 F 
ATOM     19  F   UNL     1      -4.540  -4.237  -1.064  0.00  0.00    +0.000 F 
ATOM     20  F   UNL     1      -4.540  -4.236   1.064  0.00  0.00    +0.000 F 
ENDBRANCH   7  17
ENDBRANCH   2   4
BRANCH   2   1
ATOM      1  C   UNL     1       0.936  -0.083   0.000  0.00  0.00    +0.000 C 
ATOM     10  C   UNL     1       2.051   0.678   0.000  0.00  0.00    +0.000 C 
BRANCH  10  11
ATOM     11  C   UNL     1       2.137   2.028   0.000  0.00  0.00    +0.000 A 
ATOM     12  C   UNL     1       3.360   2.599   0.001  0.00  0.00    +0.000 A 
ATOM     13  C   UNL     1       3.526   3.932   0.000  0.00  0.00    +0.000 A 
ATOM     14  C   UNL     1       2.458   4.741   0.000  0.00  0.00    +0.000 A 
ATOM     15  C   UNL     1       1.232   4.199   0.000  0.00  0.00    +0.000 A 
ATOM     16  C   UNL     1       1.079   2.865   0.000  0.00  0.00    +0.000 A 
ENDBRANCH  10  11
ENDBRANCH   2   1
TORSDOF 4
