REMARK  Name = Fragment
REMARK  5 active torsions:
REMARK  status: ('A' for Active; 'I' for Inactive)
REMARK    1  A    between atoms: C_1  and  C_2
REMARK    2  A    between atoms: C_2  and  C_4
REMARK    3  A    between atoms: C_7  and  O_17
REMARK    4  A    between atoms: C_10  and  C_11
REMARK    5  A    between atoms: O_17  and  C_18
REMARK                            x       y       z     vdW  Elec       q    Type
REMARK                         _______ _______ _______ _____ _____    ______ ____
ROOT
ATOM      2  C   UNL     1       1.480  -1.695   0.000  0.00  0.00    +0.000 C 
ATOM      3  O   UNL     1       2.536  -2.301   0.000  0.00  0.00    +0.000 OA
ENDROOT
BRANCH   2   4
ATOM      4  C   UNL     1       0.291  -2.386   0.000  0.00  0.00    +0.000 A 
ATOM      5  C   UNL     1       0.298  -3.736   0.000  0.00  0.00    +0.000 A 
ATOM      6  C   UNL     1      -0.833  -4.457   0.000  0.00  0.00    +0.000 A 
ATOM      7  C   UNL     1      -2.055  -3.896   0.000  0.00  0.00    +0.000 A 
ATOM      8  C   UNL     1      -2.063  -2.550   0.000  0.00  0.00    +0.000 A 
ATOM      9  C   UNL     1      -0.934  -1.820   0.000  0.00  0.00    +0.000 A 
BRANCH   7  17
ATOM     17  O   UNL     1      -3.164  -4.708   0.000  0.00  0.00    +0.000 OA
ATOM     18  C   UNL     1      -4.440  -4.111   0.000  0.00  0.00    +0.000 C 
ENDBRANCH   7  17
ENDBRANCH   2   4
BRANCH   2   1
ATOM      1  C   UNL     1       1.509  -0.327   0.000  0.00  0.00    +0.000 C 
ATOM     10  C   UNL     1       2.638   0.413  -0.000  0.00  0.00    +0.000 C 
BRANCH  10  11
ATOM     11  C   UNL     1       2.750   1.761  -0.000  0.00  0.00    +0.000 A 
ATOM     12  C   UNL     1       3.984   2.309  -0.000  0.00  0.00    +0.000 A 
ATOM     13  C   UNL     1       4.174   3.638  -0.000  0.00  0.00    +0.000 A 
ATOM     14  C   UNL     1       3.122   4.467  -0.000  0.00  0.00    +0.000 A 
ATOM     15  C   UNL     1       1.886   3.949  -0.000  0.00  0.00    +0.000 A 
ATOM     16  C   UNL     1       1.708   2.618  -0.000  0.00  0.00    +0.000 A 
ENDBRANCH  10  11
ENDBRANCH   2   1
TORSDOF 4
