REMARK  Name = Fragment
REMARK  3 active torsions:
REMARK  status: ('A' for Active; 'I' for Inactive)
REMARK    1  A    between atoms: C_1  and  C_2
REMARK    2  A    between atoms: C_2  and  C_4
REMARK    3  A    between atoms: C_10  and  C_11
REMARK                            x       y       z     vdW  Elec       q    Type
REMARK                         _______ _______ _______ _____ _____    ______ ____
ROOT
ATOM      1  C   UNL     1       0.470  -0.422   0.000  0.00  0.00    +0.000 C 
ATOM     10  C   UNL     1       1.579   0.349   0.000  0.00  0.00    +0.000 C 
ENDROOT
BRANCH  10  11
ATOM     11  C   UNL     1       1.652   1.700   0.000  0.00  0.00    +0.000 A 
ATOM     12  C   UNL     1       2.870   2.283   0.000  0.00  0.00    +0.000 A 
ATOM     13  C   UNL     1       3.023   3.616   0.000  0.00  0.00    +0.000 A 
ATOM     14  C   UNL     1       1.950   4.420   0.000  0.00  0.00    +0.000 A 
ATOM     15  C   UNL     1       0.731   3.863   0.000  0.00  0.00    +0.000 A 
ATOM     16  C   UNL     1       0.588   2.528   0.000  0.00  0.00    +0.000 A 
ATOM     17  F   UNL     1       2.091   5.735   0.000  0.00  0.00    +0.000 F 
ENDBRANCH  10  11
BRANCH   1   2
ATOM      2  C   UNL     1       0.480  -1.791   0.000  0.00  0.00    +0.000 C 
ATOM      3  O   UNL     1       1.554  -2.364   0.000  0.00  0.00    +0.000 OA
BRANCH   2   4
ATOM      4  C   UNL     1      -0.689  -2.516   0.000  0.00  0.00    +0.000 A 
ATOM      5  C   UNL     1      -0.633  -3.868   0.000  0.00  0.00    +0.000 A 
ATOM      6  C   UNL     1      -1.735  -4.635   0.000  0.00  0.00    +0.000 A 
ATOM      7  C   UNL     1      -2.949  -4.071   0.000  0.00  0.00    +0.000 A 
ATOM      8  C   UNL     1      -3.037  -2.735   0.000  0.00  0.00    +0.000 A 
ATOM      9  C   UNL     1      -1.928  -1.977   0.000  0.00  0.00    +0.000 A 
ENDBRANCH   2   4
ENDBRANCH   1   2
TORSDOF 3
