MODEL 1
REMARK VINA RESULT:      -9.7      0.000      0.000
REMARK  Name = Fragment
REMARK  3 active torsions:
REMARK  status: ('A' for Active; 'I' for Inactive)
REMARK    1  A    between atoms: C_1  and  C_2
REMARK    2  A    between atoms: C_2  and  C_4
REMARK    3  A    between atoms: C_10  and  C_11
REMARK                            x       y       z     vdW  Elec       q    Type
REMARK                         _______ _______ _______ _____ _____    ______ ____
ROOT
ATOM      1  C   UNL     1     -13.625 -45.148  27.983  0.00  0.00    +0.000 C 
ATOM     10  C   UNL     1     -14.514 -44.182  27.670  0.00  0.00    +0.000 C 
ENDROOT
BRANCH  10  11
ATOM     11  C   UNL     1     -14.938 -43.808  26.441  0.00  0.00    +0.000 A 
ATOM     12  C   UNL     1     -14.364 -44.375  25.358  0.00  0.00    +0.000 A 
ATOM     13  C   UNL     1     -14.730 -44.056  24.107  0.00  0.00    +0.000 A 
ATOM     14  C   UNL     1     -15.695 -43.149  23.901  0.00  0.00    +0.000 A 
ATOM     15  C   UNL     1     -16.280 -42.571  24.959  0.00  0.00    +0.000 A 
ATOM     16  C   UNL     1     -15.905 -42.898  26.206  0.00  0.00    +0.000 A 
ENDBRANCH  10  11
BRANCH   1   2
ATOM      2  C   UNL     1     -13.246 -45.469  29.260  0.00  0.00    +0.000 C 
ATOM      3  O   UNL     1     -14.076 -45.395  30.148  0.00  0.00    +0.000 OA
BRANCH   2   4
ATOM      4  C   UNL     1     -11.961 -45.865  29.548  0.00  0.00    +0.000 A 
ATOM      5  C   UNL     1     -11.571 -45.969  30.840  0.00  0.00    +0.000 A 
ATOM      6  C   UNL     1     -10.332 -46.351  31.190  0.00  0.00    +0.000 A 
ATOM      7  C   UNL     1      -9.426 -46.646  30.249  0.00  0.00    +0.000 A 
ATOM      8  C   UNL     1      -9.783 -46.552  28.962  0.00  0.00    +0.000 A 
ATOM      9  C   UNL     1     -11.025 -46.169  28.623  0.00  0.00    +0.000 A 
ENDBRANCH   2   4
ENDBRANCH   1   2
TORSDOF 3
ENDMDL
MODEL 2
REMARK VINA RESULT:      -9.6      2.379      6.918
REMARK  Name = Fragment
REMARK  3 active torsions:
REMARK  status: ('A' for Active; 'I' for Inactive)
REMARK    1  A    between atoms: C_1  and  C_2
REMARK    2  A    between atoms: C_2  and  C_4
REMARK    3  A    between atoms: C_10  and  C_11
REMARK                            x       y       z     vdW  Elec       q    Type
REMARK                         _______ _______ _______ _____ _____    ______ ____
ROOT
ATOM      1  C   UNL     1     -14.457 -43.454  26.075  0.00  0.00    +0.000 C 
ATOM     10  C   UNL     1     -14.100 -44.679  26.512  0.00  0.00    +0.000 C 
ENDROOT
BRANCH  10  11
ATOM     11  C   UNL     1     -12.998 -45.021  27.219  0.00  0.00    +0.000 A 
ATOM     12  C   UNL     1     -12.271 -44.042  27.799  0.00  0.00    +0.000 A 
ATOM     13  C   UNL     1     -11.166 -44.303  28.516  0.00  0.00    +0.000 A 
ATOM     14  C   UNL     1     -10.752 -45.567  28.674  0.00  0.00    +0.000 A 
ATOM     15  C   UNL     1     -11.455 -46.557  28.108  0.00  0.00    +0.000 A 
ATOM     16  C   UNL     1     -12.559 -46.285  27.394  0.00  0.00    +0.000 A 
ENDBRANCH  10  11
BRANCH   1   2
ATOM      2  C   UNL     1     -15.596 -43.187  25.360  0.00  0.00    +0.000 C 
ATOM      3  O   UNL     1     -15.566 -43.321  24.150  0.00  0.00    +0.000 OA
BRANCH   2   4
ATOM      4  C   UNL     1     -16.752 -42.778  25.981  0.00  0.00    +0.000 A 
ATOM      5  C   UNL     1     -17.845 -42.499  25.234  0.00  0.00    +0.000 A 
ATOM      6  C   UNL     1     -19.005 -42.095  25.777  0.00  0.00    +0.000 A 
ATOM      7  C   UNL     1     -19.116 -41.953  27.104  0.00  0.00    +0.000 A 
ATOM      8  C   UNL     1     -18.051 -42.222  27.869  0.00  0.00    +0.000 A 
ATOM      9  C   UNL     1     -16.895 -42.626  27.316  0.00  0.00    +0.000 A 
ENDBRANCH   2   4
ENDBRANCH   1   2
TORSDOF 3
ENDMDL
MODEL 3
REMARK VINA RESULT:      -9.3      2.292      7.160
REMARK  Name = Fragment
REMARK  3 active torsions:
REMARK  status: ('A' for Active; 'I' for Inactive)
REMARK    1  A    between atoms: C_1  and  C_2
REMARK    2  A    between atoms: C_2  and  C_4
REMARK    3  A    between atoms: C_10  and  C_11
REMARK                            x       y       z     vdW  Elec       q    Type
REMARK                         _______ _______ _______ _____ _____    ______ ____
ROOT
ATOM      1  C   UNL     1     -14.611 -43.214  26.001  0.00  0.00    +0.000 C 
ATOM     10  C   UNL     1     -14.253 -44.494  26.234  0.00  0.00    +0.000 C 
ENDROOT
BRANCH  10  11
ATOM     11  C   UNL     1     -13.690 -45.010  27.351  0.00  0.00    +0.000 A 
ATOM     12  C   UNL     1     -12.695 -45.914  27.216  0.00  0.00    +0.000 A 
ATOM     13  C   UNL     1     -12.088 -46.470  28.276  0.00  0.00    +0.000 A 
ATOM     14  C   UNL     1     -12.463 -46.133  29.517  0.00  0.00    +0.000 A 
ATOM     15  C   UNL     1     -13.448 -45.239  29.679  0.00  0.00    +0.000 A 
ATOM     16  C   UNL     1     -14.048 -44.689  28.611  0.00  0.00    +0.000 A 
ENDBRANCH  10  11
BRANCH   1   2
ATOM      2  C   UNL     1     -15.179 -42.768  24.837  0.00  0.00    +0.000 C 
ATOM      3  O   UNL     1     -14.451 -42.520  23.894  0.00  0.00    +0.000 OA
BRANCH   2   4
ATOM      4  C   UNL     1     -16.539 -42.598  24.722  0.00  0.00    +0.000 A 
ATOM      5  C   UNL     1     -17.292 -42.481  25.841  0.00  0.00    +0.000 A 
ATOM      6  C   UNL     1     -18.623 -42.313  25.799  0.00  0.00    +0.000 A 
ATOM      7  C   UNL     1     -19.259 -42.255  24.622  0.00  0.00    +0.000 A 
ATOM      8  C   UNL     1     -18.541 -42.367  23.498  0.00  0.00    +0.000 A 
ATOM      9  C   UNL     1     -17.209 -42.535  23.551  0.00  0.00    +0.000 A 
ENDBRANCH   2   4
ENDBRANCH   1   2
TORSDOF 3
ENDMDL
MODEL 4
REMARK VINA RESULT:      -9.2      1.224      2.351
REMARK  Name = Fragment
REMARK  3 active torsions:
REMARK  status: ('A' for Active; 'I' for Inactive)
REMARK    1  A    between atoms: C_1  and  C_2
REMARK    2  A    between atoms: C_2  and  C_4
REMARK    3  A    between atoms: C_10  and  C_11
REMARK                            x       y       z     vdW  Elec       q    Type
REMARK                         _______ _______ _______ _____ _____    ______ ____
ROOT
ATOM      1  C   UNL     1     -14.630 -44.070  27.074  0.00  0.00    +0.000 C 
ATOM     10  C   UNL     1     -15.557 -43.127  26.805  0.00  0.00    +0.000 C 
ENDROOT
BRANCH  10  11
ATOM     11  C   UNL     1     -16.007 -42.724  25.595  0.00  0.00    +0.000 A 
ATOM     12  C   UNL     1     -17.340 -42.670  25.385  0.00  0.00    +0.000 A 
ATOM     13  C   UNL     1     -17.862 -42.280  24.212  0.00  0.00    +0.000 A 
ATOM     14  C   UNL     1     -17.055 -41.928  23.201  0.00  0.00    +0.000 A 
ATOM     15  C   UNL     1     -15.728 -41.973  23.384  0.00  0.00    +0.000 A 
ATOM     16  C   UNL     1     -15.217 -42.365  24.562  0.00  0.00    +0.000 A 
ENDBRANCH  10  11
BRANCH   1   2
ATOM      2  C   UNL     1     -14.225 -44.423  28.334  0.00  0.00    +0.000 C 
ATOM      3  O   UNL     1     -14.945 -44.141  29.275  0.00  0.00    +0.000 OA
BRANCH   2   4
ATOM      4  C   UNL     1     -13.037 -45.082  28.548  0.00  0.00    +0.000 A 
ATOM      5  C   UNL     1     -12.573 -45.937  27.608  0.00  0.00    +0.000 A 
ATOM      6  C   UNL     1     -11.421 -46.612  27.754  0.00  0.00    +0.000 A 
ATOM      7  C   UNL     1     -10.682 -46.454  28.859  0.00  0.00    +0.000 A 
ATOM      8  C   UNL     1     -11.116 -45.614  29.807  0.00  0.00    +0.000 A 
ATOM      9  C   UNL     1     -12.270 -44.944  29.651  0.00  0.00    +0.000 A 
ENDBRANCH   2   4
ENDBRANCH   1   2
TORSDOF 3
ENDMDL
MODEL 5
REMARK VINA RESULT:      -9.1      2.840      4.477
REMARK  Name = Fragment
REMARK  3 active torsions:
REMARK  status: ('A' for Active; 'I' for Inactive)
REMARK    1  A    between atoms: C_1  and  C_2
REMARK    2  A    between atoms: C_2  and  C_4
REMARK    3  A    between atoms: C_10  and  C_11
REMARK                            x       y       z     vdW  Elec       q    Type
REMARK                         _______ _______ _______ _____ _____    ______ ____
ROOT
ATOM      1  C   UNL     1     -15.688 -42.711  25.889  0.00  0.00    +0.000 C 
ATOM     10  C   UNL     1     -16.846 -42.842  25.208  0.00  0.00    +0.000 C 
ENDROOT
BRANCH  10  11
ATOM     11  C   UNL     1     -18.061 -42.342  25.529  0.00  0.00    +0.000 A 
ATOM     12  C   UNL     1     -18.409 -42.270  26.832  0.00  0.00    +0.000 A 
ATOM     13  C   UNL     1     -19.596 -41.786  27.228  0.00  0.00    +0.000 A 
ATOM     14  C   UNL     1     -20.481 -41.353  26.320  0.00  0.00    +0.000 A 
ATOM     15  C   UNL     1     -20.161 -41.413  25.020  0.00  0.00    +0.000 A 
ATOM     16  C   UNL     1     -18.970 -41.900  24.636  0.00  0.00    +0.000 A 
ENDBRANCH  10  11
BRANCH   1   2
ATOM      2  C   UNL     1     -14.492 -43.252  25.496  0.00  0.00    +0.000 C 
ATOM      3  O   UNL     1     -14.171 -43.161  24.325  0.00  0.00    +0.000 OA
BRANCH   2   4
ATOM      4  C   UNL     1     -13.662 -43.884  26.392  0.00  0.00    +0.000 A 
ATOM      5  C   UNL     1     -12.697 -43.174  27.020  0.00  0.00    +0.000 A 
ATOM      6  C   UNL     1     -11.854 -43.730  27.905  0.00  0.00    +0.000 A 
ATOM      7  C   UNL     1     -11.947 -45.033  28.198  0.00  0.00    +0.000 A 
ATOM      8  C   UNL     1     -12.892 -45.762  27.593  0.00  0.00    +0.000 A 
ATOM      9  C   UNL     1     -13.731 -45.195  26.709  0.00  0.00    +0.000 A 
ENDBRANCH   2   4
ENDBRANCH   1   2
TORSDOF 3
ENDMDL
MODEL 6
REMARK VINA RESULT:      -9.0      2.974      4.740
REMARK  Name = Fragment
REMARK  3 active torsions:
REMARK  status: ('A' for Active; 'I' for Inactive)
REMARK    1  A    between atoms: C_1  and  C_2
REMARK    2  A    between atoms: C_2  and  C_4
REMARK    3  A    between atoms: C_10  and  C_11
REMARK                            x       y       z     vdW  Elec       q    Type
REMARK                         _______ _______ _______ _____ _____    ______ ____
ROOT
ATOM      1  C   UNL     1     -16.022 -42.812  25.733  0.00  0.00    +0.000 C 
ATOM     10  C   UNL     1     -17.136 -42.730  24.977  0.00  0.00    +0.000 C 
ENDROOT
BRANCH  10  11
ATOM     11  C   UNL     1     -18.339 -42.217  25.321  0.00  0.00    +0.000 A 
ATOM     12  C   UNL     1     -18.664 -42.150  26.630  0.00  0.00    +0.000 A 
ATOM     13  C   UNL     1     -19.839 -41.654  27.049  0.00  0.00    +0.000 A 
ATOM     14  C   UNL     1     -20.734 -41.205  26.158  0.00  0.00    +0.000 A 
ATOM     15  C   UNL     1     -20.436 -41.260  24.853  0.00  0.00    +0.000 A 
ATOM     16  C   UNL     1     -19.258 -41.759  24.446  0.00  0.00    +0.000 A 
ENDBRANCH  10  11
BRANCH   1   2
ATOM      2  C   UNL     1     -14.834 -43.349  25.310  0.00  0.00    +0.000 C 
ATOM      3  O   UNL     1     -14.615 -43.400  24.114  0.00  0.00    +0.000 OA
BRANCH   2   4
ATOM      4  C   UNL     1     -13.903 -43.823  26.204  0.00  0.00    +0.000 A 
ATOM      5  C   UNL     1     -13.891 -45.140  26.516  0.00  0.00    +0.000 A 
ATOM      6  C   UNL     1     -13.008 -45.668  27.380  0.00  0.00    +0.000 A 
ATOM      7  C   UNL     1     -12.094 -44.888  27.971  0.00  0.00    +0.000 A 
ATOM      8  C   UNL     1     -12.082 -43.581  27.682  0.00  0.00    +0.000 A 
ATOM      9  C   UNL     1     -12.969 -43.063  26.816  0.00  0.00    +0.000 A 
ENDBRANCH   2   4
ENDBRANCH   1   2
TORSDOF 3
ENDMDL
MODEL 7
REMARK VINA RESULT:      -8.1     20.473     23.103
REMARK  Name = Fragment
REMARK  3 active torsions:
REMARK  status: ('A' for Active; 'I' for Inactive)
REMARK    1  A    between atoms: C_1  and  C_2
REMARK    2  A    between atoms: C_2  and  C_4
REMARK    3  A    between atoms: C_10  and  C_11
REMARK                            x       y       z     vdW  Elec       q    Type
REMARK                         _______ _______ _______ _____ _____    ______ ____
ROOT
ATOM      1  C   UNL     1       4.096 -55.439  17.469  0.00  0.00    +0.000 C 
ATOM     10  C   UNL     1       4.240 -54.468  18.394  0.00  0.00    +0.000 C 
ENDROOT
BRANCH  10  11
ATOM     11  C   UNL     1       3.328 -54.034  19.294  0.00  0.00    +0.000 A 
ATOM     12  C   UNL     1       2.512 -54.940  19.878  0.00  0.00    +0.000 A 
ATOM     13  C   UNL     1       1.583 -54.586  20.779  0.00  0.00    +0.000 A 
ATOM     14  C   UNL     1       1.440 -53.300  21.127  0.00  0.00    +0.000 A 
ATOM     15  C   UNL     1       2.236 -52.382  20.563  0.00  0.00    +0.000 A 
ATOM     16  C   UNL     1       3.163 -52.747  19.662  0.00  0.00    +0.000 A 
ENDBRANCH  10  11
BRANCH   1   2
ATOM      2  C   UNL     1       5.074 -55.823  16.589  0.00  0.00    +0.000 C 
ATOM      3  O   UNL     1       6.068 -56.372  17.029  0.00  0.00    +0.000 OA
BRANCH   2   4
ATOM      4  C   UNL     1       4.949 -55.600  15.238  0.00  0.00    +0.000 A 
ATOM      5  C   UNL     1       3.748 -55.780  14.641  0.00  0.00    +0.000 A 
ATOM      6  C   UNL     1       3.559 -55.580  13.327  0.00  0.00    +0.000 A 
ATOM      7  C   UNL     1       4.577 -55.187  12.551  0.00  0.00    +0.000 A 
ATOM      8  C   UNL     1       5.778 -55.000  13.113  0.00  0.00    +0.000 A 
ATOM      9  C   UNL     1       5.956 -55.203  14.429  0.00  0.00    +0.000 A 
ENDBRANCH   2   4
ENDBRANCH   1   2
TORSDOF 3
ENDMDL
MODEL 8
REMARK VINA RESULT:      -8.0     20.409     22.768
REMARK  Name = Fragment
REMARK  3 active torsions:
REMARK  status: ('A' for Active; 'I' for Inactive)
REMARK    1  A    between atoms: C_1  and  C_2
REMARK    2  A    between atoms: C_2  and  C_4
REMARK    3  A    between atoms: C_10  and  C_11
REMARK                            x       y       z     vdW  Elec       q    Type
REMARK                         _______ _______ _______ _____ _____    ______ ____
ROOT
ATOM      1  C   UNL     1       4.563 -55.226  17.342  0.00  0.00    +0.000 C 
ATOM     10  C   UNL     1       3.897 -55.731  16.282  0.00  0.00    +0.000 C 
ENDROOT
BRANCH  10  11
ATOM     11  C   UNL     1       4.207 -55.611  14.971  0.00  0.00    +0.000 A 
ATOM     12  C   UNL     1       5.489 -55.356  14.629  0.00  0.00    +0.000 A 
ATOM     13  C   UNL     1       5.873 -55.224  13.350  0.00  0.00    +0.000 A 
ATOM     14  C   UNL     1       4.975 -55.344  12.363  0.00  0.00    +0.000 A 
ATOM     15  C   UNL     1       3.697 -55.596  12.675  0.00  0.00    +0.000 A 
ATOM     16  C   UNL     1       3.324 -55.727  13.958  0.00  0.00    +0.000 A 
ENDBRANCH  10  11
BRANCH   1   2
ATOM      2  C   UNL     1       4.183 -55.393  18.647  0.00  0.00    +0.000 C 
ATOM      3  O   UNL     1       4.505 -56.419  19.219  0.00  0.00    +0.000 OA
BRANCH   2   4
ATOM      4  C   UNL     1       3.455 -54.433  19.310  0.00  0.00    +0.000 A 
ATOM      5  C   UNL     1       2.365 -54.800  20.024  0.00  0.00    +0.000 A 
ATOM      6  C   UNL     1       1.610 -53.914  20.694  0.00  0.00    +0.000 A 
ATOM      7  C   UNL     1       1.922 -52.612  20.675  0.00  0.00    +0.000 A 
ATOM      8  C   UNL     1       2.995 -52.219  19.978  0.00  0.00    +0.000 A 
ATOM      9  C   UNL     1       3.743 -53.114  19.311  0.00  0.00    +0.000 A 
ENDBRANCH   2   4
ENDBRANCH   1   2
TORSDOF 3
ENDMDL
MODEL 9
REMARK VINA RESULT:      -8.0      4.435      9.593
REMARK  Name = Fragment
REMARK  3 active torsions:
REMARK  status: ('A' for Active; 'I' for Inactive)
REMARK    1  A    between atoms: C_1  and  C_2
REMARK    2  A    between atoms: C_2  and  C_4
REMARK    3  A    between atoms: C_10  and  C_11
REMARK                            x       y       z     vdW  Elec       q    Type
REMARK                         _______ _______ _______ _____ _____    ______ ____
ROOT
ATOM      1  C   UNL     1     -17.095 -41.748  23.217  0.00  0.00    +0.000 C 
ATOM     10  C   UNL     1     -15.822 -42.066  23.535  0.00  0.00    +0.000 C 
ENDROOT
BRANCH  10  11
ATOM     11  C   UNL     1     -15.388 -42.834  24.560  0.00  0.00    +0.000 A 
ATOM     12  C   UNL     1     -15.729 -42.487  25.820  0.00  0.00    +0.000 A 
ATOM     13  C   UNL     1     -15.337 -43.199  26.887  0.00  0.00    +0.000 A 
ATOM     14  C   UNL     1     -14.581 -44.294  26.723  0.00  0.00    +0.000 A 
ATOM     15  C   UNL     1     -14.229 -44.660  25.483  0.00  0.00    +0.000 A 
ATOM     16  C   UNL     1     -14.627 -43.940  24.423  0.00  0.00    +0.000 A 
ENDBRANCH  10  11
BRANCH   1   2
ATOM      2  C   UNL     1     -17.455 -40.960  22.156  0.00  0.00    +0.000 C 
ATOM      3  O   UNL     1     -16.596 -40.631  21.359  0.00  0.00    +0.000 OA
BRANCH   2   4
ATOM      4  C   UNL     1     -18.753 -40.540  21.983  0.00  0.00    +0.000 A 
ATOM      5  C   UNL     1     -19.629 -40.646  23.010  0.00  0.00    +0.000 A 
ATOM      6  C   UNL     1     -20.910 -40.256  22.907  0.00  0.00    +0.000 A 
ATOM      7  C   UNL     1     -21.368 -39.738  21.760  0.00  0.00    +0.000 A 
ATOM      8  C   UNL     1     -20.524 -39.621  20.727  0.00  0.00    +0.000 A 
ATOM      9  C   UNL     1     -19.245 -40.015  20.840  0.00  0.00    +0.000 A 
ENDBRANCH   2   4
ENDBRANCH   1   2
TORSDOF 3
ENDMDL
MODEL 10
REMARK VINA RESULT:      -7.8      4.414      9.521
REMARK  Name = Fragment
REMARK  3 active torsions:
REMARK  status: ('A' for Active; 'I' for Inactive)
REMARK    1  A    between atoms: C_1  and  C_2
REMARK    2  A    between atoms: C_2  and  C_4
REMARK    3  A    between atoms: C_10  and  C_11
REMARK                            x       y       z     vdW  Elec       q    Type
REMARK                         _______ _______ _______ _____ _____    ______ ____
ROOT
ATOM      1  C   UNL     1     -18.589 -42.419  24.156  0.00  0.00    +0.000 C 
ATOM     10  C   UNL     1     -17.837 -42.325  25.273  0.00  0.00    +0.000 C 
ENDROOT
BRANCH  10  11
ATOM     11  C   UNL     1     -16.614 -42.858  25.499  0.00  0.00    +0.000 A 
ATOM     12  C   UNL     1     -15.911 -43.334  24.449  0.00  0.00    +0.000 A 
ATOM     13  C   UNL     1     -14.692 -43.877  24.594  0.00  0.00    +0.000 A 
ATOM     14  C   UNL     1     -14.135 -43.960  25.810  0.00  0.00    +0.000 A 
ATOM     15  C   UNL     1     -14.812 -43.495  26.868  0.00  0.00    +0.000 A 
ATOM     16  C   UNL     1     -16.030 -42.954  26.711  0.00  0.00    +0.000 A 
ENDBRANCH  10  11
BRANCH   1   2
ATOM      2  C   UNL     1     -19.825 -41.848  24.004  0.00  0.00    +0.000 C 
ATOM      3  O   UNL     1     -20.720 -42.191  24.755  0.00  0.00    +0.000 OA
BRANCH   2   4
ATOM      4  C   UNL     1     -20.065 -40.908  23.030  0.00  0.00    +0.000 A 
ATOM      5  C   UNL     1     -19.219 -40.809  21.978  0.00  0.00    +0.000 A 
ATOM      6  C   UNL     1     -19.396 -39.913  20.993  0.00  0.00    +0.000 A 
ATOM      7  C   UNL     1     -20.438 -39.073  21.024  0.00  0.00    +0.000 A 
ATOM      8  C   UNL     1     -21.292 -39.147  22.052  0.00  0.00    +0.000 A 
ATOM      9  C   UNL     1     -21.106 -40.047  23.032  0.00  0.00    +0.000 A 
ENDBRANCH   2   4
ENDBRANCH   1   2
TORSDOF 3
ENDMDL
