MODEL 1
REMARK VINA RESULT:      -9.8      0.000      0.000
REMARK  Name = Fragment
REMARK  5 active torsions:
REMARK  status: ('A' for Active; 'I' for Inactive)
REMARK    1  A    between atoms: C_1  and  C_2
REMARK    2  A    between atoms: C_2  and  C_4
REMARK    3  A    between atoms: C_7  and  O_17
REMARK    4  A    between atoms: C_10  and  C_11
REMARK    5  A    between atoms: O_17  and  C_18
REMARK                            x       y       z     vdW  Elec       q    Type
REMARK                         _______ _______ _______ _____ _____    ______ ____
ROOT
ATOM      2  C   UNL     1     -13.108 -45.704  29.395  0.00  0.00    +0.000 C 
ATOM      3  O   UNL     1     -13.981 -45.803  30.238  0.00  0.00    +0.000 OA
ENDROOT
BRANCH   2   4
ATOM      4  C   UNL     1     -11.794 -45.925  29.736  0.00  0.00    +0.000 A 
ATOM      5  C   UNL     1     -11.406 -45.811  31.024  0.00  0.00    +0.000 A 
ATOM      6  C   UNL     1     -10.138 -46.016  31.410  0.00  0.00    +0.000 A 
ATOM      7  C   UNL     1      -9.159 -46.349  30.550  0.00  0.00    +0.000 A 
ATOM      8  C   UNL     1      -9.545 -46.462  29.266  0.00  0.00    +0.000 A 
ATOM      9  C   UNL     1     -10.814 -46.258  28.871  0.00  0.00    +0.000 A 
BRANCH   7  17
ATOM     17  O   UNL     1      -7.885 -46.541  31.028  0.00  0.00    +0.000 OA
ATOM     18  C   UNL     1      -7.226 -45.463  31.650  0.00  0.00    +0.000 C 
ENDBRANCH   7  17
ENDBRANCH   2   4
BRANCH   2   1
ATOM      1  C   UNL     1     -13.465 -45.371  28.116  0.00  0.00    +0.000 C 
ATOM     10  C   UNL     1     -14.325 -44.381  27.797  0.00  0.00    +0.000 C 
BRANCH  10  11
ATOM     11  C   UNL     1     -14.728 -43.992  26.566  0.00  0.00    +0.000 A 
ATOM     12  C   UNL     1     -15.628 -42.991  26.463  0.00  0.00    +0.000 A 
ATOM     13  C   UNL     1     -16.074 -42.552  25.276  0.00  0.00    +0.000 A 
ATOM     14  C   UNL     1     -15.626 -43.108  24.142  0.00  0.00    +0.000 A 
ATOM     15  C   UNL     1     -14.731 -44.103  24.216  0.00  0.00    +0.000 A 
ATOM     16  C   UNL     1     -14.293 -44.534  25.409  0.00  0.00    +0.000 A 
ENDBRANCH  10  11
ENDBRANCH   2   1
TORSDOF 4
ENDMDL
MODEL 2
REMARK VINA RESULT:      -9.8      1.287      1.866
REMARK  Name = Fragment
REMARK  5 active torsions:
REMARK  status: ('A' for Active; 'I' for Inactive)
REMARK    1  A    between atoms: C_1  and  C_2
REMARK    2  A    between atoms: C_2  and  C_4
REMARK    3  A    between atoms: C_7  and  O_17
REMARK    4  A    between atoms: C_10  and  C_11
REMARK    5  A    between atoms: O_17  and  C_18
REMARK                            x       y       z     vdW  Elec       q    Type
REMARK                         _______ _______ _______ _____ _____    ______ ____
ROOT
ATOM      2  C   UNL     1     -13.114 -45.788  30.729  0.00  0.00    +0.000 C 
ATOM      3  O   UNL     1     -13.679 -46.750  31.217  0.00  0.00    +0.000 OA
ENDROOT
BRANCH   2   4
ATOM      4  C   UNL     1     -11.842 -45.459  31.134  0.00  0.00    +0.000 A 
ATOM      5  C   UNL     1     -10.818 -46.304  30.888  0.00  0.00    +0.000 A 
ATOM      6  C   UNL     1      -9.559 -46.031  31.262  0.00  0.00    +0.000 A 
ATOM      7  C   UNL     1      -9.220 -44.901  31.907  0.00  0.00    +0.000 A 
ATOM      8  C   UNL     1     -10.239 -44.058  32.154  0.00  0.00    +0.000 A 
ATOM      9  C   UNL     1     -11.504 -44.324  31.782  0.00  0.00    +0.000 A 
BRANCH   7  17
ATOM     17  O   UNL     1      -7.905 -44.699  32.255  0.00  0.00    +0.000 OA
ATOM     18  C   UNL     1      -7.485 -43.395  32.581  0.00  0.00    +0.000 C 
ENDBRANCH   7  17
ENDBRANCH   2   4
BRANCH   2   1
ATOM      1  C   UNL     1     -13.771 -45.054  29.779  0.00  0.00    +0.000 C 
ATOM     10  C   UNL     1     -13.616 -45.213  28.448  0.00  0.00    +0.000 C 
BRANCH  10  11
ATOM     11  C   UNL     1     -14.225 -44.532  27.451  0.00  0.00    +0.000 A 
ATOM     12  C   UNL     1     -15.131 -43.585  27.773  0.00  0.00    +0.000 A 
ATOM     13  C   UNL     1     -15.776 -42.868  26.838  0.00  0.00    +0.000 A 
ATOM     14  C   UNL     1     -15.530 -43.081  25.539  0.00  0.00    +0.000 A 
ATOM     15  C   UNL     1     -14.634 -44.016  25.192  0.00  0.00    +0.000 A 
ATOM     16  C   UNL     1     -13.995 -44.727  26.136  0.00  0.00    +0.000 A 
ENDBRANCH  10  11
ENDBRANCH   2   1
TORSDOF 4
ENDMDL
MODEL 3
REMARK VINA RESULT:      -9.6      3.556      8.098
REMARK  Name = Fragment
REMARK  5 active torsions:
REMARK  status: ('A' for Active; 'I' for Inactive)
REMARK    1  A    between atoms: C_1  and  C_2
REMARK    2  A    between atoms: C_2  and  C_4
REMARK    3  A    between atoms: C_7  and  O_17
REMARK    4  A    between atoms: C_10  and  C_11
REMARK    5  A    between atoms: O_17  and  C_18
REMARK                            x       y       z     vdW  Elec       q    Type
REMARK                         _______ _______ _______ _____ _____    ______ ____
ROOT
ATOM      2  C   UNL     1     -15.354 -43.211  24.967  0.00  0.00    +0.000 C 
ATOM      3  O   UNL     1     -15.244 -43.321  23.759  0.00  0.00    +0.000 OA
ENDROOT
BRANCH   2   4
ATOM      4  C   UNL     1     -16.550 -42.812  25.515  0.00  0.00    +0.000 A 
ATOM      5  C   UNL     1     -16.673 -42.705  26.855  0.00  0.00    +0.000 A 
ATOM      6  C   UNL     1     -17.817 -42.320  27.440  0.00  0.00    +0.000 A 
ATOM      7  C   UNL     1     -18.925 -42.011  26.742  0.00  0.00    +0.000 A 
ATOM      8  C   UNL     1     -18.803 -42.117  25.406  0.00  0.00    +0.000 A 
ATOM      9  C   UNL     1     -17.660 -42.503  24.812  0.00  0.00    +0.000 A 
BRANCH   7  17
ATOM     17  O   UNL     1     -20.056 -41.625  27.420  0.00  0.00    +0.000 OA
ATOM     18  C   UNL     1     -21.136 -41.095  26.686  0.00  0.00    +0.000 C 
ENDBRANCH   7  17
ENDBRANCH   2   4
BRANCH   2   1
ATOM      1  C   UNL     1     -14.269 -43.493  25.752  0.00  0.00    +0.000 C 
ATOM     10  C   UNL     1     -14.069 -44.668  26.385  0.00  0.00    +0.000 C 
BRANCH  10  11
ATOM     11  C   UNL     1     -13.029 -45.022  27.174  0.00  0.00    +0.000 A 
ATOM     12  C   UNL     1     -12.370 -44.056  27.850  0.00  0.00    +0.000 A 
ATOM     13  C   UNL     1     -11.328 -44.331  28.651  0.00  0.00    +0.000 A 
ATOM     14  C   UNL     1     -10.912 -45.595  28.802  0.00  0.00    +0.000 A 
ATOM     15  C   UNL     1     -11.549 -46.573  28.143  0.00  0.00    +0.000 A 
ATOM     16  C   UNL     1     -12.589 -46.286  27.344  0.00  0.00    +0.000 A 
ENDBRANCH  10  11
ENDBRANCH   2   1
TORSDOF 4
ENDMDL
MODEL 4
REMARK VINA RESULT:      -9.2      2.718      4.232
REMARK  Name = Fragment
REMARK  5 active torsions:
REMARK  status: ('A' for Active; 'I' for Inactive)
REMARK    1  A    between atoms: C_1  and  C_2
REMARK    2  A    between atoms: C_2  and  C_4
REMARK    3  A    between atoms: C_7  and  O_17
REMARK    4  A    between atoms: C_10  and  C_11
REMARK    5  A    between atoms: O_17  and  C_18
REMARK                            x       y       z     vdW  Elec       q    Type
REMARK                         _______ _______ _______ _____ _____    ______ ____
ROOT
ATOM      2  C   UNL     1     -14.131 -43.311  25.959  0.00  0.00    +0.000 C 
ATOM      3  O   UNL     1     -13.744 -43.012  24.844  0.00  0.00    +0.000 OA
ENDROOT
BRANCH   2   4
ATOM      4  C   UNL     1     -13.331 -44.068  26.784  0.00  0.00    +0.000 A 
ATOM      5  C   UNL     1     -13.519 -45.402  26.863  0.00  0.00    +0.000 A 
ATOM      6  C   UNL     1     -12.767 -46.184  27.651  0.00  0.00    +0.000 A 
ATOM      7  C   UNL     1     -11.773 -45.705  28.420  0.00  0.00    +0.000 A 
ATOM      8  C   UNL     1     -11.585 -44.374  28.341  0.00  0.00    +0.000 A 
ATOM      9  C   UNL     1     -12.334 -43.583  27.554  0.00  0.00    +0.000 A 
BRANCH   7  17
ATOM     17  O   UNL     1     -11.050 -46.576  29.199  0.00  0.00    +0.000 OA
ATOM     18  C   UNL     1     -10.301 -46.059  30.275  0.00  0.00    +0.000 C 
ENDBRANCH   7  17
ENDBRANCH   2   4
BRANCH   2   1
ATOM      1  C   UNL     1     -15.365 -42.881  26.363  0.00  0.00    +0.000 C 
ATOM     10  C   UNL     1     -16.453 -42.825  25.565  0.00  0.00    +0.000 C 
BRANCH  10  11
ATOM     11  C   UNL     1     -17.701 -42.415  25.887  0.00  0.00    +0.000 A 
ATOM     12  C   UNL     1     -18.544 -42.061  24.893  0.00  0.00    +0.000 A 
ATOM     13  C   UNL     1     -19.796 -41.644  25.135  0.00  0.00    +0.000 A 
ATOM     14  C   UNL     1     -20.248 -41.567  26.393  0.00  0.00    +0.000 A 
ATOM     15  C   UNL     1     -19.432 -41.911  27.399  0.00  0.00    +0.000 A 
ATOM     16  C   UNL     1     -18.180 -42.328  27.145  0.00  0.00    +0.000 A 
ENDBRANCH  10  11
ENDBRANCH   2   1
TORSDOF 4
ENDMDL
MODEL 5
REMARK VINA RESULT:      -9.2      3.789      8.719
REMARK  Name = Fragment
REMARK  5 active torsions:
REMARK  status: ('A' for Active; 'I' for Inactive)
REMARK    1  A    between atoms: C_1  and  C_2
REMARK    2  A    between atoms: C_2  and  C_4
REMARK    3  A    between atoms: C_7  and  O_17
REMARK    4  A    between atoms: C_10  and  C_11
REMARK    5  A    between atoms: O_17  and  C_18
REMARK                            x       y       z     vdW  Elec       q    Type
REMARK                         _______ _______ _______ _____ _____    ______ ____
ROOT
ATOM      2  C   UNL     1     -16.402 -42.887  25.402  0.00  0.00    +0.000 C 
ATOM      3  O   UNL     1     -16.103 -42.894  24.222  0.00  0.00    +0.000 OA
ENDROOT
BRANCH   2   4
ATOM      4  C   UNL     1     -17.641 -42.439  25.795  0.00  0.00    +0.000 A 
ATOM      5  C   UNL     1     -17.953 -42.390  27.108  0.00  0.00    +0.000 A 
ATOM      6  C   UNL     1     -19.147 -41.961  27.544  0.00  0.00    +0.000 A 
ATOM      7  C   UNL     1     -20.121 -41.549  26.713  0.00  0.00    +0.000 A 
ATOM      8  C   UNL     1     -19.811 -41.598  25.404  0.00  0.00    +0.000 A 
ATOM      9  C   UNL     1     -18.617 -42.026  24.959  0.00  0.00    +0.000 A 
BRANCH   7  17
ATOM     17  O   UNL     1     -21.317 -41.125  27.243  0.00  0.00    +0.000 OA
ATOM     18  C   UNL     1     -22.264 -40.532  26.385  0.00  0.00    +0.000 C 
ENDBRANCH   7  17
ENDBRANCH   2   4
BRANCH   2   1
ATOM      1  C   UNL     1     -15.483 -43.331  26.314  0.00  0.00    +0.000 C 
ATOM     10  C   UNL     1     -14.341 -43.976  25.994  0.00  0.00    +0.000 C 
BRANCH  10  11
ATOM     11  C   UNL     1     -13.387 -44.444  26.831  0.00  0.00    +0.000 A 
ATOM     12  C   UNL     1     -13.274 -45.778  27.004  0.00  0.00    +0.000 A 
ATOM     13  C   UNL     1     -12.352 -46.316  27.818  0.00  0.00    +0.000 A 
ATOM     14  C   UNL     1     -11.506 -45.525  28.491  0.00  0.00    +0.000 A 
ATOM     15  C   UNL     1     -11.597 -44.197  28.337  0.00  0.00    +0.000 A 
ATOM     16  C   UNL     1     -12.523 -43.670  27.520  0.00  0.00    +0.000 A 
ENDBRANCH  10  11
ENDBRANCH   2   1
TORSDOF 4
ENDMDL
MODEL 6
REMARK VINA RESULT:      -8.4      4.372      9.343
REMARK  Name = Fragment
REMARK  5 active torsions:
REMARK  status: ('A' for Active; 'I' for Inactive)
REMARK    1  A    between atoms: C_1  and  C_2
REMARK    2  A    between atoms: C_2  and  C_4
REMARK    3  A    between atoms: C_7  and  O_17
REMARK    4  A    between atoms: C_10  and  C_11
REMARK    5  A    between atoms: O_17  and  C_18
REMARK                            x       y       z     vdW  Elec       q    Type
REMARK                         _______ _______ _______ _____ _____    ______ ____
ROOT
ATOM      2  C   UNL     1     -17.257 -42.613  24.858  0.00  0.00    +0.000 C 
ATOM      3  O   UNL     1     -16.975 -42.745  23.680  0.00  0.00    +0.000 OA
ENDROOT
BRANCH   2   4
ATOM      4  C   UNL     1     -18.490 -42.123  25.218  0.00  0.00    +0.000 A 
ATOM      5  C   UNL     1     -19.385 -41.787  24.265  0.00  0.00    +0.000 A 
ATOM      6  C   UNL     1     -20.600 -41.304  24.563  0.00  0.00    +0.000 A 
ATOM      7  C   UNL     1     -21.021 -41.119  25.827  0.00  0.00    +0.000 A 
ATOM      8  C   UNL     1     -20.129 -41.453  26.778  0.00  0.00    +0.000 A 
ATOM      9  C   UNL     1     -18.909 -41.938  26.488  0.00  0.00    +0.000 A 
BRANCH   7  17
ATOM     17  O   UNL     1     -22.282 -40.619  26.046  0.00  0.00    +0.000 OA
ATOM     18  C   UNL     1     -22.658 -40.281  27.361  0.00  0.00    +0.000 C 
ENDBRANCH   7  17
ENDBRANCH   2   4
BRANCH   2   1
ATOM      1  C   UNL     1     -16.326 -42.962  25.798  0.00  0.00    +0.000 C 
ATOM     10  C   UNL     1     -15.067 -43.361  25.515  0.00  0.00    +0.000 C 
BRANCH  10  11
ATOM     11  C   UNL     1     -14.094 -43.720  26.383  0.00  0.00    +0.000 A 
ATOM     12  C   UNL     1     -13.080 -42.859  26.612  0.00  0.00    +0.000 A 
ATOM     13  C   UNL     1     -12.078 -43.146  27.459  0.00  0.00    +0.000 A 
ATOM     14  C   UNL     1     -12.062 -44.317  28.108  0.00  0.00    +0.000 A 
ATOM     15  C   UNL     1     -13.057 -45.190  27.898  0.00  0.00    +0.000 A 
ATOM     16  C   UNL     1     -14.054 -44.893  27.049  0.00  0.00    +0.000 A 
ENDBRANCH  10  11
ENDBRANCH   2   1
TORSDOF 4
ENDMDL
MODEL 7
REMARK VINA RESULT:      -8.2      3.212      5.449
REMARK  Name = Fragment
REMARK  5 active torsions:
REMARK  status: ('A' for Active; 'I' for Inactive)
REMARK    1  A    between atoms: C_1  and  C_2
REMARK    2  A    between atoms: C_2  and  C_4
REMARK    3  A    between atoms: C_7  and  O_17
REMARK    4  A    between atoms: C_10  and  C_11
REMARK    5  A    between atoms: O_17  and  C_18
REMARK                            x       y       z     vdW  Elec       q    Type
REMARK                         _______ _______ _______ _____ _____    ______ ____
ROOT
ATOM      2  C   UNL     1     -15.050 -42.532  24.517  0.00  0.00    +0.000 C 
ATOM      3  O   UNL     1     -14.495 -41.921  23.622  0.00  0.00    +0.000 OA
ENDROOT
BRANCH   2   4
ATOM      4  C   UNL     1     -14.303 -43.145  25.496  0.00  0.00    +0.000 A 
ATOM      5  C   UNL     1     -14.446 -44.469  25.721  0.00  0.00    +0.000 A 
ATOM      6  C   UNL     1     -13.743 -45.114  26.663  0.00  0.00    +0.000 A 
ATOM      7  C   UNL     1     -12.846 -44.499  27.453  0.00  0.00    +0.000 A 
ATOM      8  C   UNL     1     -12.702 -43.179  27.230  0.00  0.00    +0.000 A 
ATOM      9  C   UNL     1     -13.404 -42.524  26.288  0.00  0.00    +0.000 A 
BRANCH   7  17
ATOM     17  O   UNL     1     -12.167 -45.235  28.394  0.00  0.00    +0.000 OA
ATOM     18  C   UNL     1     -11.730 -44.592  29.569  0.00  0.00    +0.000 C 
ENDBRANCH   7  17
ENDBRANCH   2   4
BRANCH   2   1
ATOM      1  C   UNL     1     -16.417 -42.591  24.522  0.00  0.00    +0.000 C 
ATOM     10  C   UNL     1     -17.183 -42.455  25.625  0.00  0.00    +0.000 C 
BRANCH  10  11
ATOM     11  C   UNL     1     -18.532 -42.500  25.712  0.00  0.00    +0.000 A 
ATOM     12  C   UNL     1     -19.144 -41.780  26.677  0.00  0.00    +0.000 A 
ATOM     13  C   UNL     1     -20.478 -41.775  26.825  0.00  0.00    +0.000 A 
ATOM     14  C   UNL     1     -21.248 -42.499  26.002  0.00  0.00    +0.000 A 
ATOM     15  C   UNL     1     -20.666 -43.223  25.036  0.00  0.00    +0.000 A 
ATOM     16  C   UNL     1     -19.330 -43.220  24.897  0.00  0.00    +0.000 A 
ENDBRANCH  10  11
ENDBRANCH   2   1
TORSDOF 4
ENDMDL
MODEL 8
REMARK VINA RESULT:      -7.9      4.122      7.115
REMARK  Name = Fragment
REMARK  5 active torsions:
REMARK  status: ('A' for Active; 'I' for Inactive)
REMARK    1  A    between atoms: C_1  and  C_2
REMARK    2  A    between atoms: C_2  and  C_4
REMARK    3  A    between atoms: C_7  and  O_17
REMARK    4  A    between atoms: C_10  and  C_11
REMARK    5  A    between atoms: O_17  and  C_18
REMARK                            x       y       z     vdW  Elec       q    Type
REMARK                         _______ _______ _______ _____ _____    ______ ____
ROOT
ATOM      2  C   UNL     1     -16.514 -42.747  23.826  0.00  0.00    +0.000 C 
ATOM      3  O   UNL     1     -15.958 -42.998  22.773  0.00  0.00    +0.000 OA
ENDROOT
BRANCH   2   4
ATOM      4  C   UNL     1     -15.931 -43.115  25.016  0.00  0.00    +0.000 A 
ATOM      5  C   UNL     1     -14.877 -43.957  25.016  0.00  0.00    +0.000 A 
ATOM      6  C   UNL     1     -14.272 -44.347  26.148  0.00  0.00    +0.000 A 
ATOM      7  C   UNL     1     -14.667 -43.933  27.365  0.00  0.00    +0.000 A 
ATOM      8  C   UNL     1     -15.718 -43.093  27.366  0.00  0.00    +0.000 A 
ATOM      9  C   UNL     1     -16.330 -42.697  26.236  0.00  0.00    +0.000 A 
BRANCH   7  17
ATOM     17  O   UNL     1     -13.992 -44.380  28.476  0.00  0.00    +0.000 OA
ATOM     18  C   UNL     1     -13.049 -45.416  28.323  0.00  0.00    +0.000 C 
ENDBRANCH   7  17
ENDBRANCH   2   4
BRANCH   2   1
ATOM      1  C   UNL     1     -17.718 -42.097  23.794  0.00  0.00    +0.000 C 
ATOM     10  C   UNL     1     -18.175 -41.387  22.740  0.00  0.00    +0.000 C 
BRANCH  10  11
ATOM     11  C   UNL     1     -19.346 -40.720  22.630  0.00  0.00    +0.000 A 
ATOM     12  C   UNL     1     -20.328 -40.984  23.519  0.00  0.00    +0.000 A 
ATOM     13  C   UNL     1     -21.517 -40.362  23.473  0.00  0.00    +0.000 A 
ATOM     14  C   UNL     1     -21.761 -39.448  22.525  0.00  0.00    +0.000 A 
ATOM     15  C   UNL     1     -20.803 -39.167  21.631  0.00  0.00    +0.000 A 
ATOM     16  C   UNL     1     -19.618 -39.796  21.686  0.00  0.00    +0.000 A 
ENDBRANCH  10  11
ENDBRANCH   2   1
TORSDOF 4
ENDMDL
MODEL 9
REMARK VINA RESULT:      -7.8      5.964     11.281
REMARK  Name = Fragment
REMARK  5 active torsions:
REMARK  status: ('A' for Active; 'I' for Inactive)
REMARK    1  A    between atoms: C_1  and  C_2
REMARK    2  A    between atoms: C_2  and  C_4
REMARK    3  A    between atoms: C_7  and  O_17
REMARK    4  A    between atoms: C_10  and  C_11
REMARK    5  A    between atoms: O_17  and  C_18
REMARK                            x       y       z     vdW  Elec       q    Type
REMARK                         _______ _______ _______ _____ _____    ______ ____
ROOT
ATOM      2  C   UNL     1     -19.744 -41.725  23.935  0.00  0.00    +0.000 C 
ATOM      3  O   UNL     1     -20.629 -41.908  24.751  0.00  0.00    +0.000 OA
ENDROOT
BRANCH   2   4
ATOM      4  C   UNL     1     -19.947 -40.861  22.884  0.00  0.00    +0.000 A 
ATOM      5  C   UNL     1     -20.980 -39.993  22.917  0.00  0.00    +0.000 A 
ATOM      6  C   UNL     1     -21.221 -39.131  21.918  0.00  0.00    +0.000 A 
ATOM      7  C   UNL     1     -20.458 -39.063  20.813  0.00  0.00    +0.000 A 
ATOM      8  C   UNL     1     -19.428 -39.928  20.779  0.00  0.00    +0.000 A 
ATOM      9  C   UNL     1     -19.179 -40.796  21.776  0.00  0.00    +0.000 A 
BRANCH   7  17
ATOM     17  O   UNL     1     -20.775 -38.150  19.836  0.00  0.00    +0.000 OA
ATOM     18  C   UNL     1     -21.872 -38.414  18.992  0.00  0.00    +0.000 C 
ENDBRANCH   7  17
ENDBRANCH   2   4
BRANCH   2   1
ATOM      1  C   UNL     1     -18.560 -42.392  24.091  0.00  0.00    +0.000 C 
ATOM     10  C   UNL     1     -17.729 -42.238  25.144  0.00  0.00    +0.000 C 
BRANCH  10  11
ATOM     11  C   UNL     1     -16.548 -42.857  25.370  0.00  0.00    +0.000 A 
ATOM     12  C   UNL     1     -16.102 -42.958  26.640  0.00  0.00    +0.000 A 
ATOM     13  C   UNL     1     -14.939 -43.558  26.942  0.00  0.00    +0.000 A 
ATOM     14  C   UNL     1     -14.181 -44.081  25.970  0.00  0.00    +0.000 A 
ATOM     15  C   UNL     1     -14.601 -43.995  24.700  0.00  0.00    +0.000 A 
ATOM     16  C   UNL     1     -15.766 -43.392  24.410  0.00  0.00    +0.000 A 
ENDBRANCH  10  11
ENDBRANCH   2   1
TORSDOF 4
ENDMDL
MODEL 10
REMARK VINA RESULT:      -7.8      4.738      7.948
REMARK  Name = Fragment
REMARK  5 active torsions:
REMARK  status: ('A' for Active; 'I' for Inactive)
REMARK    1  A    between atoms: C_1  and  C_2
REMARK    2  A    between atoms: C_2  and  C_4
REMARK    3  A    between atoms: C_7  and  O_17
REMARK    4  A    between atoms: C_10  and  C_11
REMARK    5  A    between atoms: O_17  and  C_18
REMARK                            x       y       z     vdW  Elec       q    Type
REMARK                         _______ _______ _______ _____ _____    ______ ____
ROOT
ATOM      2  C   UNL     1     -18.564 -42.699  24.526  0.00  0.00    +0.000 C 
ATOM      3  O   UNL     1     -19.427 -43.329  25.109  0.00  0.00    +0.000 OA
ENDROOT
BRANCH   2   4
ATOM      4  C   UNL     1     -17.282 -42.666  25.024  0.00  0.00    +0.000 A 
ATOM      5  C   UNL     1     -17.075 -42.768  26.354  0.00  0.00    +0.000 A 
ATOM      6  C   UNL     1     -15.846 -42.742  26.890  0.00  0.00    +0.000 A 
ATOM      7  C   UNL     1     -14.730 -42.613  26.150  0.00  0.00    +0.000 A 
ATOM      8  C   UNL     1     -14.936 -42.511  24.824  0.00  0.00    +0.000 A 
ATOM      9  C   UNL     1     -16.165 -42.536  24.278  0.00  0.00    +0.000 A 
BRANCH   7  17
ATOM     17  O   UNL     1     -13.508 -42.595  26.779  0.00  0.00    +0.000 OA
ATOM     18  C   UNL     1     -12.965 -43.811  27.237  0.00  0.00    +0.000 C 
ENDBRANCH   7  17
ENDBRANCH   2   4
BRANCH   2   1
ATOM      1  C   UNL     1     -18.900 -42.033  23.379  0.00  0.00    +0.000 C 
ATOM     10  C   UNL     1     -19.646 -40.909  23.338  0.00  0.00    +0.000 C 
BRANCH  10  11
ATOM     11  C   UNL     1     -20.019 -40.196  22.251  0.00  0.00    +0.000 A 
ATOM     12  C   UNL     1     -19.256 -40.262  21.139  0.00  0.00    +0.000 A 
ATOM     13  C   UNL     1     -19.563 -39.583  20.022  0.00  0.00    +0.000 A 
ATOM     14  C   UNL     1     -20.655 -38.809  19.986  0.00  0.00    +0.000 A 
ATOM     15  C   UNL     1     -21.430 -38.725  21.076  0.00  0.00    +0.000 A 
ATOM     16  C   UNL     1     -21.113 -39.409  22.188  0.00  0.00    +0.000 A 
ENDBRANCH  10  11
ENDBRANCH   2   1
TORSDOF 4
ENDMDL
