MODEL 1
REMARK VINA RESULT:     -10.1      0.000      0.000
REMARK  Name = Fragment
REMARK  7 active torsions:
REMARK  status: ('A' for Active; 'I' for Inactive)
REMARK    1  A    between atoms: C_1  and  C_2
REMARK    2  A    between atoms: C_2  and  C_4
REMARK    3  A    between atoms: C_7  and  C_17
REMARK    4  A    between atoms: C_10  and  C_11
REMARK    5  A    between atoms: C_17  and  O_19
REMARK    6  A    between atoms: O_19  and  C_20
REMARK    7  A    between atoms: C_20  and  C_21
REMARK                            x       y       z     vdW  Elec       q    Type
REMARK                         _______ _______ _______ _____ _____    ______ ____
ROOT
ATOM      4  C   UNL     1     -13.602 -43.902  26.469  0.00  0.00    +0.000 A 
ATOM      5  C   UNL     1     -13.724 -45.240  26.607  0.00  0.00    +0.000 A 
ATOM      6  C   UNL     1     -12.951 -45.957  27.441  0.00  0.00    +0.000 A 
ATOM      7  C   UNL     1     -12.004 -45.368  28.190  0.00  0.00    +0.000 A 
ATOM      8  C   UNL     1     -11.868 -44.035  28.065  0.00  0.00    +0.000 A 
ATOM      9  C   UNL     1     -12.646 -43.326  27.228  0.00  0.00    +0.000 A 
ENDROOT
BRANCH   4   2
ATOM      2  C   UNL     1     -14.426 -43.229  25.598  0.00  0.00    +0.000 C 
ATOM      3  O   UNL     1     -14.079 -43.055  24.443  0.00  0.00    +0.000 OA
BRANCH   2   1
ATOM      1  C   UNL     1     -15.641 -42.741  25.997  0.00  0.00    +0.000 C 
ATOM     10  C   UNL     1     -16.765 -42.783  25.248  0.00  0.00    +0.000 C 
BRANCH  10  11
ATOM     11  C   UNL     1     -17.996 -42.325  25.570  0.00  0.00    +0.000 A 
ATOM     12  C   UNL     1     -18.347 -42.275  26.872  0.00  0.00    +0.000 A 
ATOM     13  C   UNL     1     -19.551 -41.833  27.270  0.00  0.00    +0.000 A 
ATOM     14  C   UNL     1     -20.449 -41.424  26.362  0.00  0.00    +0.000 A 
ATOM     15  C   UNL     1     -20.125 -41.464  25.064  0.00  0.00    +0.000 A 
ATOM     16  C   UNL     1     -18.918 -41.908  24.678  0.00  0.00    +0.000 A 
ENDBRANCH  10  11
ENDBRANCH   2   1
ENDBRANCH   4   2
BRANCH   7  17
ATOM     17  C   UNL     1     -11.224 -46.109  29.034  0.00  0.00    +0.000 C 
ATOM     18  O   UNL     1     -10.191 -46.613  28.635  0.00  0.00    +0.000 OA
BRANCH  17  19
ATOM     19  O   UNL     1     -11.596 -46.296  30.344  0.00  0.00    +0.000 OA
BRANCH  19  20
ATOM     20  C   UNL     1     -10.631 -46.153  31.353  0.00  0.00    +0.000 C 
ATOM     21  C   UNL     1     -10.346 -44.667  31.549  0.00  0.00    +0.000 C 
ENDBRANCH  19  20
ENDBRANCH  17  19
ENDBRANCH   7  17
TORSDOF 6
ENDMDL
MODEL 2
REMARK VINA RESULT:     -10.1      2.424      3.472
REMARK  Name = Fragment
REMARK  7 active torsions:
REMARK  status: ('A' for Active; 'I' for Inactive)
REMARK    1  A    between atoms: C_1  and  C_2
REMARK    2  A    between atoms: C_2  and  C_4
REMARK    3  A    between atoms: C_7  and  C_17
REMARK    4  A    between atoms: C_10  and  C_11
REMARK    5  A    between atoms: C_17  and  O_19
REMARK    6  A    between atoms: O_19  and  C_20
REMARK    7  A    between atoms: C_20  and  C_21
REMARK                            x       y       z     vdW  Elec       q    Type
REMARK                         _______ _______ _______ _____ _____    ______ ____
ROOT
ATOM      4  C   UNL     1     -12.259 -43.984  27.803  0.00  0.00    +0.000 A 
ATOM      5  C   UNL     1     -11.417 -44.799  28.476  0.00  0.00    +0.000 A 
ATOM      6  C   UNL     1     -10.189 -44.414  28.863  0.00  0.00    +0.000 A 
ATOM      7  C   UNL     1      -9.730 -43.180  28.595  0.00  0.00    +0.000 A 
ATOM      8  C   UNL     1     -10.555 -42.355  27.926  0.00  0.00    +0.000 A 
ATOM      9  C   UNL     1     -11.782 -42.748  27.543  0.00  0.00    +0.000 A 
ENDROOT
BRANCH   4   2
ATOM      2  C   UNL     1     -13.502 -44.442  27.437  0.00  0.00    +0.000 C 
ATOM      3  O   UNL     1     -14.084 -45.249  28.137  0.00  0.00    +0.000 OA
BRANCH   2   1
ATOM      1  C   UNL     1     -14.113 -44.008  26.290  0.00  0.00    +0.000 C 
ATOM     10  C   UNL     1     -15.199 -43.206  26.260  0.00  0.00    +0.000 C 
BRANCH  10  11
ATOM     11  C   UNL     1     -15.856 -42.738  25.174  0.00  0.00    +0.000 A 
ATOM     12  C   UNL     1     -15.144 -42.143  24.193  0.00  0.00    +0.000 A 
ATOM     13  C   UNL     1     -15.725 -41.654  23.086  0.00  0.00    +0.000 A 
ATOM     14  C   UNL     1     -17.053 -41.747  22.928  0.00  0.00    +0.000 A 
ATOM     15  C   UNL     1     -17.782 -42.332  23.887  0.00  0.00    +0.000 A 
ATOM     16  C   UNL     1     -17.190 -42.818  24.990  0.00  0.00    +0.000 A 
ENDBRANCH  10  11
ENDBRANCH   2   1
ENDBRANCH   4   2
BRANCH   7  17
ATOM     17  C   UNL     1      -8.478 -42.801  28.995  0.00  0.00    +0.000 C 
ATOM     18  O   UNL     1      -8.028 -41.720  28.665  0.00  0.00    +0.000 OA
BRANCH  17  19
ATOM     19  O   UNL     1      -7.712 -43.636  29.773  0.00  0.00    +0.000 OA
BRANCH  19  20
ATOM     20  C   UNL     1      -7.754 -43.494  31.168  0.00  0.00    +0.000 C 
ATOM     21  C   UNL     1      -7.846 -44.880  31.798  0.00  0.00    +0.000 C 
ENDBRANCH  19  20
ENDBRANCH  17  19
ENDBRANCH   7  17
TORSDOF 6
ENDMDL
MODEL 3
REMARK VINA RESULT:      -9.9      2.651      7.896
REMARK  Name = Fragment
REMARK  7 active torsions:
REMARK  status: ('A' for Active; 'I' for Inactive)
REMARK    1  A    between atoms: C_1  and  C_2
REMARK    2  A    between atoms: C_2  and  C_4
REMARK    3  A    between atoms: C_7  and  C_17
REMARK    4  A    between atoms: C_10  and  C_11
REMARK    5  A    between atoms: C_17  and  O_19
REMARK    6  A    between atoms: O_19  and  C_20
REMARK    7  A    between atoms: C_20  and  C_21
REMARK                            x       y       z     vdW  Elec       q    Type
REMARK                         _______ _______ _______ _____ _____    ______ ____
ROOT
ATOM      4  C   UNL     1     -16.255 -42.771  25.699  0.00  0.00    +0.000 A 
ATOM      5  C   UNL     1     -17.335 -42.616  24.902  0.00  0.00    +0.000 A 
ATOM      6  C   UNL     1     -18.563 -42.362  25.385  0.00  0.00    +0.000 A 
ATOM      7  C   UNL     1     -18.780 -42.247  26.707  0.00  0.00    +0.000 A 
ATOM      8  C   UNL     1     -17.716 -42.398  27.515  0.00  0.00    +0.000 A 
ATOM      9  C   UNL     1     -16.492 -42.652  27.023  0.00  0.00    +0.000 A 
ENDROOT
BRANCH   4   2
ATOM      2  C   UNL     1     -15.027 -43.030  25.139  0.00  0.00    +0.000 C 
ATOM      3  O   UNL     1     -14.880 -42.956  23.933  0.00  0.00    +0.000 OA
BRANCH   2   1
ATOM      1  C   UNL     1     -13.948 -43.372  25.911  0.00  0.00    +0.000 C 
ATOM     10  C   UNL     1     -13.817 -44.548  26.562  0.00  0.00    +0.000 C 
BRANCH  10  11
ATOM     11  C   UNL     1     -12.789 -44.958  27.339  0.00  0.00    +0.000 A 
ATOM     12  C   UNL     1     -12.093 -44.032  28.033  0.00  0.00    +0.000 A 
ATOM     13  C   UNL     1     -11.060 -44.362  28.825  0.00  0.00    +0.000 A 
ATOM     14  C   UNL     1     -10.690 -45.645  28.945  0.00  0.00    +0.000 A 
ATOM     15  C   UNL     1     -11.364 -46.582  28.267  0.00  0.00    +0.000 A 
ATOM     16  C   UNL     1     -12.395 -46.241  27.478  0.00  0.00    +0.000 A 
ENDBRANCH  10  11
ENDBRANCH   2   1
ENDBRANCH   4   2
BRANCH   7  17
ATOM     17  C   UNL     1     -20.036 -41.988  27.185  0.00  0.00    +0.000 C 
ATOM     18  O   UNL     1     -20.528 -40.883  27.056  0.00  0.00    +0.000 OA
BRANCH  17  19
ATOM     19  O   UNL     1     -20.757 -42.972  27.818  0.00  0.00    +0.000 OA
BRANCH  19  20
ATOM     20  C   UNL     1     -21.819 -43.584  27.134  0.00  0.00    +0.000 C 
ATOM     21  C   UNL     1     -21.353 -44.947  26.631  0.00  0.00    +0.000 C 
ENDBRANCH  19  20
ENDBRANCH  17  19
ENDBRANCH   7  17
TORSDOF 6
ENDMDL
MODEL 4
REMARK VINA RESULT:      -9.2      1.293      2.121
REMARK  Name = Fragment
REMARK  7 active torsions:
REMARK  status: ('A' for Active; 'I' for Inactive)
REMARK    1  A    between atoms: C_1  and  C_2
REMARK    2  A    between atoms: C_2  and  C_4
REMARK    3  A    between atoms: C_7  and  C_17
REMARK    4  A    between atoms: C_10  and  C_11
REMARK    5  A    between atoms: C_17  and  O_19
REMARK    6  A    between atoms: O_19  and  C_20
REMARK    7  A    between atoms: C_20  and  C_21
REMARK                            x       y       z     vdW  Elec       q    Type
REMARK                         _______ _______ _______ _____ _____    ______ ____
ROOT
ATOM      4  C   UNL     1     -14.054 -43.845  26.141  0.00  0.00    +0.000 A 
ATOM      5  C   UNL     1     -13.168 -42.881  26.476  0.00  0.00    +0.000 A 
ATOM      6  C   UNL     1     -12.165 -43.088  27.345  0.00  0.00    +0.000 A 
ATOM      7  C   UNL     1     -11.989 -44.283  27.934  0.00  0.00    +0.000 A 
ATOM      8  C   UNL     1     -12.862 -45.255  27.611  0.00  0.00    +0.000 A 
ATOM      9  C   UNL     1     -13.863 -45.039  26.741  0.00  0.00    +0.000 A 
ENDROOT
BRANCH   4   2
ATOM      2  C   UNL     1     -15.057 -43.566  25.244  0.00  0.00    +0.000 C 
ATOM      3  O   UNL     1     -14.852 -43.670  24.049  0.00  0.00    +0.000 OA
BRANCH   2   1
ATOM      1  C   UNL     1     -16.300 -43.170  25.663  0.00  0.00    +0.000 C 
ATOM     10  C   UNL     1     -17.176 -42.476  24.906  0.00  0.00    +0.000 C 
BRANCH  10  11
ATOM     11  C   UNL     1     -18.414 -42.051  25.246  0.00  0.00    +0.000 A 
ATOM     12  C   UNL     1     -19.272 -41.704  24.263  0.00  0.00    +0.000 A 
ATOM     13  C   UNL     1     -20.517 -41.273  24.522  0.00  0.00    +0.000 A 
ATOM     14  C   UNL     1     -20.944 -41.175  25.788  0.00  0.00    +0.000 A 
ATOM     15  C   UNL     1     -20.111 -41.512  26.782  0.00  0.00    +0.000 A 
ATOM     16  C   UNL     1     -18.869 -41.942  26.511  0.00  0.00    +0.000 A 
ENDBRANCH  10  11
ENDBRANCH   2   1
ENDBRANCH   4   2
BRANCH   7  17
ATOM     17  C   UNL     1     -10.964 -44.481  28.817  0.00  0.00    +0.000 C 
ATOM     18  O   UNL     1     -11.167 -45.026  29.885  0.00  0.00    +0.000 OA
BRANCH  17  19
ATOM     19  O   UNL     1      -9.690 -44.065  28.510  0.00  0.00    +0.000 OA
BRANCH  19  20
ATOM     20  C   UNL     1      -9.103 -43.046  29.275  0.00  0.00    +0.000 C 
ATOM     21  C   UNL     1      -8.097 -43.673  30.235  0.00  0.00    +0.000 C 
ENDBRANCH  19  20
ENDBRANCH  17  19
ENDBRANCH   7  17
TORSDOF 6
ENDMDL
MODEL 5
REMARK VINA RESULT:      -8.9      2.027      3.574
REMARK  Name = Fragment
REMARK  7 active torsions:
REMARK  status: ('A' for Active; 'I' for Inactive)
REMARK    1  A    between atoms: C_1  and  C_2
REMARK    2  A    between atoms: C_2  and  C_4
REMARK    3  A    between atoms: C_7  and  C_17
REMARK    4  A    between atoms: C_10  and  C_11
REMARK    5  A    between atoms: C_17  and  O_19
REMARK    6  A    between atoms: O_19  and  C_20
REMARK    7  A    between atoms: C_20  and  C_21
REMARK                            x       y       z     vdW  Elec       q    Type
REMARK                         _______ _______ _______ _____ _____    ______ ____
ROOT
ATOM      4  C   UNL     1     -16.457 -43.028  24.817  0.00  0.00    +0.000 A 
ATOM      5  C   UNL     1     -16.503 -42.832  26.153  0.00  0.00    +0.000 A 
ATOM      6  C   UNL     1     -15.444 -43.041  26.953  0.00  0.00    +0.000 A 
ATOM      7  C   UNL     1     -14.269 -43.463  26.456  0.00  0.00    +0.000 A 
ATOM      8  C   UNL     1     -14.206 -43.664  25.128  0.00  0.00    +0.000 A 
ATOM      9  C   UNL     1     -15.269 -43.452  24.335  0.00  0.00    +0.000 A 
ENDROOT
BRANCH   4   2
ATOM      2  C   UNL     1     -17.577 -42.795  24.055  0.00  0.00    +0.000 C 
ATOM      3  O   UNL     1     -17.507 -42.837  22.840  0.00  0.00    +0.000 OA
BRANCH   2   1
ATOM      1  C   UNL     1     -18.787 -42.512  24.632  0.00  0.00    +0.000 C 
ATOM     10  C   UNL     1     -19.479 -41.369  24.436  0.00  0.00    +0.000 C 
BRANCH  10  11
ATOM     11  C   UNL     1     -20.672 -41.018  24.966  0.00  0.00    +0.000 A 
ATOM     12  C   UNL     1     -20.830 -41.085  26.305  0.00  0.00    +0.000 A 
ATOM     13  C   UNL     1     -21.984 -40.753  26.905  0.00  0.00    +0.000 A 
ATOM     14  C   UNL     1     -23.027 -40.339  26.171  0.00  0.00    +0.000 A 
ATOM     15  C   UNL     1     -22.896 -40.264  24.840  0.00  0.00    +0.000 A 
ATOM     16  C   UNL     1     -21.737 -40.599  24.252  0.00  0.00    +0.000 A 
ENDBRANCH  10  11
ENDBRANCH   2   1
ENDBRANCH   4   2
BRANCH   7  17
ATOM     17  C   UNL     1     -13.199 -43.672  27.283  0.00  0.00    +0.000 C 
ATOM     18  O   UNL     1     -12.256 -42.903  27.276  0.00  0.00    +0.000 OA
BRANCH  17  19
ATOM     19  O   UNL     1     -13.174 -44.754  28.131  0.00  0.00    +0.000 OA
BRANCH  19  20
ATOM     20  C   UNL     1     -12.154 -45.707  27.989  0.00  0.00    +0.000 C 
ATOM     21  C   UNL     1     -12.598 -46.748  26.966  0.00  0.00    +0.000 C 
ENDBRANCH  19  20
ENDBRANCH  17  19
ENDBRANCH   7  17
TORSDOF 6
ENDMDL
MODEL 6
REMARK VINA RESULT:      -8.8      2.786      8.743
REMARK  Name = Fragment
REMARK  7 active torsions:
REMARK  status: ('A' for Active; 'I' for Inactive)
REMARK    1  A    between atoms: C_1  and  C_2
REMARK    2  A    between atoms: C_2  and  C_4
REMARK    3  A    between atoms: C_7  and  C_17
REMARK    4  A    between atoms: C_10  and  C_11
REMARK    5  A    between atoms: C_17  and  O_19
REMARK    6  A    between atoms: O_19  and  C_20
REMARK    7  A    between atoms: C_20  and  C_21
REMARK                            x       y       z     vdW  Elec       q    Type
REMARK                         _______ _______ _______ _____ _____    ______ ____
ROOT
ATOM      4  C   UNL     1     -16.542 -42.609  25.972  0.00  0.00    +0.000 A 
ATOM      5  C   UNL     1     -17.852 -42.278  25.990  0.00  0.00    +0.000 A 
ATOM      6  C   UNL     1     -18.550 -42.016  24.872  0.00  0.00    +0.000 A 
ATOM      7  C   UNL     1     -17.969 -42.070  23.661  0.00  0.00    +0.000 A 
ATOM      8  C   UNL     1     -16.665 -42.397  23.625  0.00  0.00    +0.000 A 
ATOM      9  C   UNL     1     -15.975 -42.658  24.748  0.00  0.00    +0.000 A 
ENDROOT
BRANCH   4   2
ATOM      2  C   UNL     1     -15.888 -42.865  27.153  0.00  0.00    +0.000 C 
ATOM      3  O   UNL     1     -16.421 -42.598  28.215  0.00  0.00    +0.000 OA
BRANCH   2   1
ATOM      1  C   UNL     1     -14.637 -43.421  27.170  0.00  0.00    +0.000 C 
ATOM     10  C   UNL     1     -14.315 -44.559  27.822  0.00  0.00    +0.000 C 
BRANCH  10  11
ATOM     11  C   UNL     1     -13.109 -45.168  27.886  0.00  0.00    +0.000 A 
ATOM     12  C   UNL     1     -12.111 -44.557  28.560  0.00  0.00    +0.000 A 
ATOM     13  C   UNL     1     -10.887 -45.099  28.667  0.00  0.00    +0.000 A 
ATOM     14  C   UNL     1     -10.624 -46.283  28.096  0.00  0.00    +0.000 A 
ATOM     15  C   UNL     1     -11.597 -46.909  27.421  0.00  0.00    +0.000 A 
ATOM     16  C   UNL     1     -12.817 -46.357  27.320  0.00  0.00    +0.000 A 
ENDBRANCH  10  11
ENDBRANCH   2   1
ENDBRANCH   4   2
BRANCH   7  17
ATOM     17  C   UNL     1     -18.691 -41.800  22.531  0.00  0.00    +0.000 C 
ATOM     18  O   UNL     1     -18.372 -40.880  21.802  0.00  0.00    +0.000 OA
BRANCH  17  19
ATOM     19  O   UNL     1     -19.785 -42.564  22.203  0.00  0.00    +0.000 OA
BRANCH  19  20
ATOM     20  C   UNL     1     -20.739 -42.042  21.316  0.00  0.00    +0.000 C 
ATOM     21  C   UNL     1     -21.110 -43.124  20.306  0.00  0.00    +0.000 C 
ENDBRANCH  19  20
ENDBRANCH  17  19
ENDBRANCH   7  17
TORSDOF 6
ENDMDL
MODEL 7
REMARK VINA RESULT:      -8.7      2.358      3.618
REMARK  Name = Fragment
REMARK  7 active torsions:
REMARK  status: ('A' for Active; 'I' for Inactive)
REMARK    1  A    between atoms: C_1  and  C_2
REMARK    2  A    between atoms: C_2  and  C_4
REMARK    3  A    between atoms: C_7  and  C_17
REMARK    4  A    between atoms: C_10  and  C_11
REMARK    5  A    between atoms: C_17  and  O_19
REMARK    6  A    between atoms: O_19  and  C_20
REMARK    7  A    between atoms: C_20  and  C_21
REMARK                            x       y       z     vdW  Elec       q    Type
REMARK                         _______ _______ _______ _____ _____    ______ ____
ROOT
ATOM      4  C   UNL     1     -15.433 -42.929  24.674  0.00  0.00    +0.000 A 
ATOM      5  C   UNL     1     -15.856 -42.564  25.905  0.00  0.00    +0.000 A 
ATOM      6  C   UNL     1     -15.428 -43.166  27.027  0.00  0.00    +0.000 A 
ATOM      7  C   UNL     1     -14.543 -44.176  26.980  0.00  0.00    +0.000 A 
ATOM      8  C   UNL     1     -14.110 -44.552  25.763  0.00  0.00    +0.000 A 
ATOM      9  C   UNL     1     -14.544 -43.945  24.646  0.00  0.00    +0.000 A 
ENDROOT
BRANCH   4   2
ATOM      2  C   UNL     1     -15.911 -42.271  23.566  0.00  0.00    +0.000 C 
ATOM      3  O   UNL     1     -15.165 -41.575  22.902  0.00  0.00    +0.000 OA
BRANCH   2   1
ATOM      1  C   UNL     1     -17.222 -42.377  23.183  0.00  0.00    +0.000 C 
ATOM     10  C   UNL     1     -17.976 -41.346  22.745  0.00  0.00    +0.000 C 
BRANCH  10  11
ATOM     11  C   UNL     1     -19.270 -41.370  22.351  0.00  0.00    +0.000 A 
ATOM     12  C   UNL     1     -20.109 -42.247  22.942  0.00  0.00    +0.000 A 
ATOM     13  C   UNL     1     -21.406 -42.330  22.604  0.00  0.00    +0.000 A 
ATOM     14  C   UNL     1     -21.905 -41.528  21.654  0.00  0.00    +0.000 A 
ATOM     15  C   UNL     1     -21.093 -40.649  21.052  0.00  0.00    +0.000 A 
ATOM     16  C   UNL     1     -19.797 -40.575  21.398  0.00  0.00    +0.000 A 
ENDBRANCH  10  11
ENDBRANCH   2   1
ENDBRANCH   4   2
BRANCH   7  17
ATOM     17  C   UNL     1     -14.115 -44.780  28.131  0.00  0.00    +0.000 C 
ATOM     18  O   UNL     1     -14.439 -44.336  29.216  0.00  0.00    +0.000 OA
BRANCH  17  19
ATOM     19  O   UNL     1     -13.313 -45.896  28.076  0.00  0.00    +0.000 OA
BRANCH  19  20
ATOM     20  C   UNL     1     -12.295 -46.049  29.029  0.00  0.00    +0.000 C 
ATOM     21  C   UNL     1     -11.003 -46.422  28.308  0.00  0.00    +0.000 C 
ENDBRANCH  19  20
ENDBRANCH  17  19
ENDBRANCH   7  17
TORSDOF 6
ENDMDL
MODEL 8
REMARK VINA RESULT:      -8.4      3.164      5.561
REMARK  Name = Fragment
REMARK  7 active torsions:
REMARK  status: ('A' for Active; 'I' for Inactive)
REMARK    1  A    between atoms: C_1  and  C_2
REMARK    2  A    between atoms: C_2  and  C_4
REMARK    3  A    between atoms: C_7  and  C_17
REMARK    4  A    between atoms: C_10  and  C_11
REMARK    5  A    between atoms: C_17  and  O_19
REMARK    6  A    between atoms: O_19  and  C_20
REMARK    7  A    between atoms: C_20  and  C_21
REMARK                            x       y       z     vdW  Elec       q    Type
REMARK                         _______ _______ _______ _____ _____    ______ ____
ROOT
ATOM      4  C   UNL     1     -18.556 -42.345  25.504  0.00  0.00    +0.000 A 
ATOM      5  C   UNL     1     -17.634 -42.710  24.586  0.00  0.00    +0.000 A 
ATOM      6  C   UNL     1     -16.363 -43.003  24.911  0.00  0.00    +0.000 A 
ATOM      7  C   UNL     1     -15.940 -42.945  26.186  0.00  0.00    +0.000 A 
ATOM      8  C   UNL     1     -16.845 -42.583  27.113  0.00  0.00    +0.000 A 
ATOM      9  C   UNL     1     -18.114 -42.293  26.779  0.00  0.00    +0.000 A 
ENDROOT
BRANCH   4   2
ATOM      2  C   UNL     1     -19.839 -42.059  25.104  0.00  0.00    +0.000 C 
ATOM      3  O   UNL     1     -20.763 -42.180  25.888  0.00  0.00    +0.000 OA
BRANCH   2   1
ATOM      1  C   UNL     1     -20.113 -41.637  23.830  0.00  0.00    +0.000 C 
ATOM     10  C   UNL     1     -20.154 -40.343  23.447  0.00  0.00    +0.000 C 
BRANCH  10  11
ATOM     11  C   UNL     1     -20.416 -39.848  22.215  0.00  0.00    +0.000 A 
ATOM     12  C   UNL     1     -19.535 -40.090  21.220  0.00  0.00    +0.000 A 
ATOM     13  C   UNL     1     -19.726 -39.633  19.973  0.00  0.00    +0.000 A 
ATOM     14  C   UNL     1     -20.817 -38.912  19.681  0.00  0.00    +0.000 A 
ATOM     15  C   UNL     1     -21.706 -38.658  20.651  0.00  0.00    +0.000 A 
ATOM     16  C   UNL     1     -21.505 -39.120  21.895  0.00  0.00    +0.000 A 
ENDBRANCH  10  11
ENDBRANCH   2   1
ENDBRANCH   4   2
BRANCH   7  17
ATOM     17  C   UNL     1     -14.644 -43.245  26.503  0.00  0.00    +0.000 C 
ATOM     18  O   UNL     1     -13.864 -42.362  26.807  0.00  0.00    +0.000 OA
BRANCH  17  19
ATOM     19  O   UNL     1     -14.204 -44.548  26.482  0.00  0.00    +0.000 OA
BRANCH  19  20
ATOM     20  C   UNL     1     -13.664 -45.102  27.652  0.00  0.00    +0.000 C 
ATOM     21  C   UNL     1     -12.787 -46.291  27.269  0.00  0.00    +0.000 C 
ENDBRANCH  19  20
ENDBRANCH  17  19
ENDBRANCH   7  17
TORSDOF 6
ENDMDL
MODEL 9
REMARK VINA RESULT:      -8.3      3.024      8.359
REMARK  Name = Fragment
REMARK  7 active torsions:
REMARK  status: ('A' for Active; 'I' for Inactive)
REMARK    1  A    between atoms: C_1  and  C_2
REMARK    2  A    between atoms: C_2  and  C_4
REMARK    3  A    between atoms: C_7  and  C_17
REMARK    4  A    between atoms: C_10  and  C_11
REMARK    5  A    between atoms: C_17  and  O_19
REMARK    6  A    between atoms: O_19  and  C_20
REMARK    7  A    between atoms: C_20  and  C_21
REMARK                            x       y       z     vdW  Elec       q    Type
REMARK                         _______ _______ _______ _____ _____    ______ ____
ROOT
ATOM      4  C   UNL     1     -17.371 -42.691  25.484  0.00  0.00    +0.000 A 
ATOM      5  C   UNL     1     -18.441 -43.034  24.733  0.00  0.00    +0.000 A 
ATOM      6  C   UNL     1     -19.690 -43.071  25.225  0.00  0.00    +0.000 A 
ATOM      7  C   UNL     1     -19.942 -42.762  26.509  0.00  0.00    +0.000 A 
ATOM      8  C   UNL     1     -18.888 -42.418  27.271  0.00  0.00    +0.000 A 
ATOM      9  C   UNL     1     -17.641 -42.384  26.770  0.00  0.00    +0.000 A 
ENDROOT
BRANCH   4   2
ATOM      2  C   UNL     1     -16.118 -42.673  24.917  0.00  0.00    +0.000 C 
ATOM      3  O   UNL     1     -15.990 -42.432  23.731  0.00  0.00    +0.000 OA
BRANCH   2   1
ATOM      1  C   UNL     1     -14.995 -42.923  25.660  0.00  0.00    +0.000 C 
ATOM     10  C   UNL     1     -14.726 -44.099  26.266  0.00  0.00    +0.000 C 
BRANCH  10  11
ATOM     11  C   UNL     1     -13.645 -44.422  27.012  0.00  0.00    +0.000 A 
ATOM     12  C   UNL     1     -12.718 -43.470  27.254  0.00  0.00    +0.000 A 
ATOM     13  C   UNL     1     -11.619 -43.714  27.985  0.00  0.00    +0.000 A 
ATOM     14  C   UNL     1     -11.414 -44.934  28.503  0.00  0.00    +0.000 A 
ATOM     15  C   UNL     1     -12.319 -45.895  28.278  0.00  0.00    +0.000 A 
ATOM     16  C   UNL     1     -13.415 -45.640  27.545  0.00  0.00    +0.000 A 
ENDBRANCH  10  11
ENDBRANCH   2   1
ENDBRANCH   4   2
BRANCH   7  17
ATOM     17  C   UNL     1     -21.219 -42.804  26.997  0.00  0.00    +0.000 C 
ATOM     18  O   UNL     1     -21.516 -43.588  27.878  0.00  0.00    +0.000 OA
BRANCH  17  19
ATOM     19  O   UNL     1     -22.183 -41.960  26.499  0.00  0.00    +0.000 OA
BRANCH  19  20
ATOM     20  C   UNL     1     -23.257 -42.505  25.778  0.00  0.00    +0.000 C 
ATOM     21  C   UNL     1     -23.207 -41.972  24.350  0.00  0.00    +0.000 C 
ENDBRANCH  19  20
ENDBRANCH  17  19
ENDBRANCH   7  17
TORSDOF 6
ENDMDL
MODEL 10
REMARK VINA RESULT:      -8.0      2.542      4.906
REMARK  Name = Fragment
REMARK  7 active torsions:
REMARK  status: ('A' for Active; 'I' for Inactive)
REMARK    1  A    between atoms: C_1  and  C_2
REMARK    2  A    between atoms: C_2  and  C_4
REMARK    3  A    between atoms: C_7  and  C_17
REMARK    4  A    between atoms: C_10  and  C_11
REMARK    5  A    between atoms: C_17  and  O_19
REMARK    6  A    between atoms: O_19  and  C_20
REMARK    7  A    between atoms: C_20  and  C_21
REMARK                            x       y       z     vdW  Elec       q    Type
REMARK                         _______ _______ _______ _____ _____    ______ ____
ROOT
ATOM      4  C   UNL     1     -18.077 -42.258  25.580  0.00  0.00    +0.000 A 
ATOM      5  C   UNL     1     -17.117 -42.625  24.703  0.00  0.00    +0.000 A 
ATOM      6  C   UNL     1     -15.903 -43.048  25.092  0.00  0.00    +0.000 A 
ATOM      7  C   UNL     1     -15.578 -43.129  26.394  0.00  0.00    +0.000 A 
ATOM      8  C   UNL     1     -16.523 -42.767  27.281  0.00  0.00    +0.000 A 
ATOM      9  C   UNL     1     -17.734 -42.345  26.883  0.00  0.00    +0.000 A 
ENDROOT
BRANCH   4   2
ATOM      2  C   UNL     1     -19.299 -41.834  25.114  0.00  0.00    +0.000 C 
ATOM      3  O   UNL     1     -19.537 -41.854  23.920  0.00  0.00    +0.000 OA
BRANCH   2   1
ATOM      1  C   UNL     1     -20.271 -41.382  25.967  0.00  0.00    +0.000 C 
ATOM     10  C   UNL     1     -21.534 -41.858  26.007  0.00  0.00    +0.000 C 
BRANCH  10  11
ATOM     11  C   UNL     1     -22.545 -41.466  26.816  0.00  0.00    +0.000 A 
ATOM     12  C   UNL     1     -22.656 -40.157  27.125  0.00  0.00    +0.000 A 
ATOM     13  C   UNL     1     -23.632 -39.692  27.921  0.00  0.00    +0.000 A 
ATOM     14  C   UNL     1     -24.536 -40.536  28.437  0.00  0.00    +0.000 A 
ATOM     15  C   UNL     1     -24.448 -41.840  28.146  0.00  0.00    +0.000 A 
ATOM     16  C   UNL     1     -23.467 -42.294  27.349  0.00  0.00    +0.000 A 
ENDBRANCH  10  11
ENDBRANCH   2   1
ENDBRANCH   4   2
BRANCH   7  17
ATOM     17  C   UNL     1     -14.338 -43.562  26.776  0.00  0.00    +0.000 C 
ATOM     18  O   UNL     1     -13.437 -42.765  26.959  0.00  0.00    +0.000 OA
BRANCH  17  19
ATOM     19  O   UNL     1     -14.093 -44.902  26.959  0.00  0.00    +0.000 OA
BRANCH  19  20
ATOM     20  C   UNL     1     -13.039 -45.293  27.799  0.00  0.00    +0.000 C 
ATOM     21  C   UNL     1     -12.456 -46.601  27.274  0.00  0.00    +0.000 C 
ENDBRANCH  19  20
ENDBRANCH  17  19
ENDBRANCH   7  17
TORSDOF 6
ENDMDL
