MODEL 1
REMARK VINA RESULT:     -10.2      0.000      0.000
REMARK  Name = Fragment
REMARK  4 active torsions:
REMARK  status: ('A' for Active; 'I' for Inactive)
REMARK    1  A    between atoms: C_1  and  C_2
REMARK    2  A    between atoms: C_2  and  C_4
REMARK    3  A    between atoms: C_7  and  N_17
REMARK    4  A    between atoms: C_10  and  C_11
REMARK                            x       y       z     vdW  Elec       q    Type
REMARK                         _______ _______ _______ _____ _____    ______ ____
ROOT
ATOM      2  C   UNL     1     -13.440 -44.378  27.559  0.00  0.00    +0.000 C 
ATOM      3  O   UNL     1     -14.036 -45.160  28.278  0.00  0.00    +0.000 OA
ENDROOT
BRANCH   2   4
ATOM      4  C   UNL     1     -12.185 -43.919  27.877  0.00  0.00    +0.000 A 
ATOM      5  C   UNL     1     -11.345 -44.696  28.593  0.00  0.00    +0.000 A 
ATOM      6  C   UNL     1     -10.108 -44.297  28.932  0.00  0.00    +0.000 A 
ATOM      7  C   UNL     1      -9.631 -43.091  28.575  0.00  0.00    +0.000 A 
ATOM      8  C   UNL     1     -10.461 -42.310  27.862  0.00  0.00    +0.000 A 
ATOM      9  C   UNL     1     -11.697 -42.711  27.524  0.00  0.00    +0.000 A 
BRANCH   7  17
ATOM     17  N   UNL     1      -8.475 -42.705  28.886  0.00  0.00    +0.000 N 
ATOM     18  O   UNL     1      -7.675 -43.395  29.667  0.00  0.00    +0.000 OA
ATOM     19  O   UNL     1      -7.962 -41.577  28.456  0.00  0.00    +0.000 OA
ENDBRANCH   7  17
ENDBRANCH   2   4
BRANCH   2   1
ATOM      1  C   UNL     1     -14.071 -43.970  26.414  0.00  0.00    +0.000 C 
ATOM     10  C   UNL     1     -15.173 -43.189  26.377  0.00  0.00    +0.000 C 
BRANCH  10  11
ATOM     11  C   UNL     1     -15.846 -42.749  25.289  0.00  0.00    +0.000 A 
ATOM     12  C   UNL     1     -17.196 -42.771  25.311  0.00  0.00    +0.000 A 
ATOM     13  C   UNL     1     -17.934 -42.351  24.271  0.00  0.00    +0.000 A 
ATOM     14  C   UNL     1     -17.334 -41.891  23.165  0.00  0.00    +0.000 A 
ATOM     15  C   UNL     1     -15.994 -41.858  23.118  0.00  0.00    +0.000 A 
ATOM     16  C   UNL     1     -15.267 -42.281  24.164  0.00  0.00    +0.000 A 
ENDBRANCH  10  11
ENDBRANCH   2   1
TORSDOF 4
ENDMDL
MODEL 2
REMARK VINA RESULT:     -10.1      2.761      3.586
REMARK  Name = Fragment
REMARK  4 active torsions:
REMARK  status: ('A' for Active; 'I' for Inactive)
REMARK    1  A    between atoms: C_1  and  C_2
REMARK    2  A    between atoms: C_2  and  C_4
REMARK    3  A    between atoms: C_7  and  N_17
REMARK    4  A    between atoms: C_10  and  C_11
REMARK                            x       y       z     vdW  Elec       q    Type
REMARK                         _______ _______ _______ _____ _____    ______ ____
ROOT
ATOM      2  C   UNL     1     -13.088 -45.748  30.761  0.00  0.00    +0.000 C 
ATOM      3  O   UNL     1     -13.612 -46.730  31.254  0.00  0.00    +0.000 OA
ENDROOT
BRANCH   2   4
ATOM      4  C   UNL     1     -11.837 -45.329  31.146  0.00  0.00    +0.000 A 
ATOM      5  C   UNL     1     -10.788 -46.175  31.062  0.00  0.00    +0.000 A 
ATOM      6  C   UNL     1      -9.545 -45.818  31.424  0.00  0.00    +0.000 A 
ATOM      7  C   UNL     1      -9.270 -44.588  31.895  0.00  0.00    +0.000 A 
ATOM      8  C   UNL     1     -10.310 -43.739  31.982  0.00  0.00    +0.000 A 
ATOM      9  C   UNL     1     -11.551 -44.098  31.620  0.00  0.00    +0.000 A 
BRANCH   7  17
ATOM     17  N   UNL     1      -8.111 -44.241  32.238  0.00  0.00    +0.000 N 
ATOM     18  O   UNL     1      -7.817 -43.029  32.650  0.00  0.00    +0.000 OA
ATOM     19  O   UNL     1      -7.088 -45.062  32.214  0.00  0.00    +0.000 OA
ENDBRANCH   7  17
ENDBRANCH   2   4
BRANCH   2   1
ATOM      1  C   UNL     1     -13.794 -45.070  29.803  0.00  0.00    +0.000 C 
ATOM     10  C   UNL     1     -13.552 -45.136  28.476  0.00  0.00    +0.000 C 
BRANCH  10  11
ATOM     11  C   UNL     1     -14.205 -44.498  27.477  0.00  0.00    +0.000 A 
ATOM     12  C   UNL     1     -15.146 -43.585  27.800  0.00  0.00    +0.000 A 
ATOM     13  C   UNL     1     -15.837 -42.912  26.865  0.00  0.00    +0.000 A 
ATOM     14  C   UNL     1     -15.602 -43.136  25.565  0.00  0.00    +0.000 A 
ATOM     15  C   UNL     1     -14.672 -44.038  25.219  0.00  0.00    +0.000 A 
ATOM     16  C   UNL     1     -13.988 -44.705  26.162  0.00  0.00    +0.000 A 
ENDBRANCH  10  11
ENDBRANCH   2   1
TORSDOF 4
ENDMDL
MODEL 3
REMARK VINA RESULT:      -9.9      4.345      7.925
REMARK  Name = Fragment
REMARK  4 active torsions:
REMARK  status: ('A' for Active; 'I' for Inactive)
REMARK    1  A    between atoms: C_1  and  C_2
REMARK    2  A    between atoms: C_2  and  C_4
REMARK    3  A    between atoms: C_7  and  N_17
REMARK    4  A    between atoms: C_10  and  C_11
REMARK                            x       y       z     vdW  Elec       q    Type
REMARK                         _______ _______ _______ _____ _____    ______ ____
ROOT
ATOM      2  C   UNL     1     -15.397 -42.963  25.102  0.00  0.00    +0.000 C 
ATOM      3  O   UNL     1     -15.150 -42.916  23.911  0.00  0.00    +0.000 OA
ENDROOT
BRANCH   2   4
ATOM      4  C   UNL     1     -16.656 -42.708  25.588  0.00  0.00    +0.000 A 
ATOM      5  C   UNL     1     -16.860 -42.624  26.920  0.00  0.00    +0.000 A 
ATOM      6  C   UNL     1     -18.070 -42.377  27.448  0.00  0.00    +0.000 A 
ATOM      7  C   UNL     1     -19.157 -42.197  26.676  0.00  0.00    +0.000 A 
ATOM      8  C   UNL     1     -18.963 -42.278  25.348  0.00  0.00    +0.000 A 
ATOM      9  C   UNL     1     -17.753 -42.526  24.822  0.00  0.00    +0.000 A 
BRANCH   7  17
ATOM     17  N   UNL     1     -20.295 -41.964  27.159  0.00  0.00    +0.000 N 
ATOM     18  O   UNL     1     -20.775 -40.751  27.312  0.00  0.00    +0.000 OA
ATOM     19  O   UNL     1     -21.107 -42.916  27.554  0.00  0.00    +0.000 OA
ENDBRANCH   7  17
ENDBRANCH   2   4
BRANCH   2   1
ATOM      1  C   UNL     1     -14.367 -43.281  25.947  0.00  0.00    +0.000 C 
ATOM     10  C   UNL     1     -14.042 -44.535  26.328  0.00  0.00    +0.000 C 
BRANCH  10  11
ATOM     11  C   UNL     1     -13.043 -44.923  27.154  0.00  0.00    +0.000 A 
ATOM     12  C   UNL     1     -12.362 -43.975  27.834  0.00  0.00    +0.000 A 
ATOM     13  C   UNL     1     -11.359 -44.281  28.672  0.00  0.00    +0.000 A 
ATOM     14  C   UNL     1     -11.004 -45.560  28.856  0.00  0.00    +0.000 A 
ATOM     15  C   UNL     1     -11.664 -46.519  28.193  0.00  0.00    +0.000 A 
ATOM     16  C   UNL     1     -12.666 -46.201  27.357  0.00  0.00    +0.000 A 
ENDBRANCH  10  11
ENDBRANCH   2   1
TORSDOF 4
ENDMDL
MODEL 4
REMARK VINA RESULT:      -9.6      2.346      3.373
REMARK  Name = Fragment
REMARK  4 active torsions:
REMARK  status: ('A' for Active; 'I' for Inactive)
REMARK    1  A    between atoms: C_1  and  C_2
REMARK    2  A    between atoms: C_2  and  C_4
REMARK    3  A    between atoms: C_7  and  N_17
REMARK    4  A    between atoms: C_10  and  C_11
REMARK                            x       y       z     vdW  Elec       q    Type
REMARK                         _______ _______ _______ _____ _____    ______ ____
ROOT
ATOM      2  C   UNL     1     -14.336 -43.207  25.727  0.00  0.00    +0.000 C 
ATOM      3  O   UNL     1     -14.008 -43.044  24.565  0.00  0.00    +0.000 OA
ENDROOT
BRANCH   2   4
ATOM      4  C   UNL     1     -13.520 -43.853  26.623  0.00  0.00    +0.000 A 
ATOM      5  C   UNL     1     -13.688 -45.172  26.857  0.00  0.00    +0.000 A 
ATOM      6  C   UNL     1     -12.918 -45.852  27.723  0.00  0.00    +0.000 A 
ATOM      7  C   UNL     1     -11.928 -45.256  28.411  0.00  0.00    +0.000 A 
ATOM      8  C   UNL     1     -11.754 -43.942  28.183  0.00  0.00    +0.000 A 
ATOM      9  C   UNL     1     -12.524 -43.264  27.317  0.00  0.00    +0.000 A 
BRANCH   7  17
ATOM     17  N   UNL     1     -11.201 -45.882  29.223  0.00  0.00    +0.000 N 
ATOM     18  O   UNL     1      -9.986 -46.289  28.932  0.00  0.00    +0.000 OA
ATOM     19  O   UNL     1     -11.591 -46.186  30.439  0.00  0.00    +0.000 OA
ENDBRANCH   7  17
ENDBRANCH   2   4
BRANCH   2   1
ATOM      1  C   UNL     1     -15.558 -42.720  26.110  0.00  0.00    +0.000 C 
ATOM     10  C   UNL     1     -16.685 -42.798  25.369  0.00  0.00    +0.000 C 
BRANCH  10  11
ATOM     11  C   UNL     1     -17.920 -42.342  25.681  0.00  0.00    +0.000 A 
ATOM     12  C   UNL     1     -18.273 -42.270  26.982  0.00  0.00    +0.000 A 
ATOM     13  C   UNL     1     -19.480 -41.829  27.371  0.00  0.00    +0.000 A 
ATOM     14  C   UNL     1     -20.379 -41.441  26.457  0.00  0.00    +0.000 A 
ATOM     15  C   UNL     1     -20.054 -41.502  25.158  0.00  0.00    +0.000 A 
ATOM     16  C   UNL     1     -18.843 -41.945  24.782  0.00  0.00    +0.000 A 
ENDBRANCH  10  11
ENDBRANCH   2   1
TORSDOF 4
ENDMDL
MODEL 5
REMARK VINA RESULT:      -9.4      4.091      7.982
REMARK  Name = Fragment
REMARK  4 active torsions:
REMARK  status: ('A' for Active; 'I' for Inactive)
REMARK    1  A    between atoms: C_1  and  C_2
REMARK    2  A    between atoms: C_2  and  C_4
REMARK    3  A    between atoms: C_7  and  N_17
REMARK    4  A    between atoms: C_10  and  C_11
REMARK                            x       y       z     vdW  Elec       q    Type
REMARK                         _______ _______ _______ _____ _____    ______ ____
ROOT
ATOM      2  C   UNL     1     -12.930 -46.042  29.676  0.00  0.00    +0.000 C 
ATOM      3  O   UNL     1     -13.651 -46.605  30.480  0.00  0.00    +0.000 OA
ENDROOT
BRANCH   2   4
ATOM      4  C   UNL     1     -13.432 -45.478  28.529  0.00  0.00    +0.000 A 
ATOM      5  C   UNL     1     -14.291 -44.439  28.610  0.00  0.00    +0.000 A 
ATOM      6  C   UNL     1     -14.811 -43.850  27.521  0.00  0.00    +0.000 A 
ATOM      7  C   UNL     1     -14.506 -44.263  26.277  0.00  0.00    +0.000 A 
ATOM      8  C   UNL     1     -13.652 -45.298  26.188  0.00  0.00    +0.000 A 
ATOM      9  C   UNL     1     -13.132 -45.885  27.278  0.00  0.00    +0.000 A 
BRANCH   7  17
ATOM     17  N   UNL     1     -14.987 -43.720  25.250  0.00  0.00    +0.000 N 
ATOM     18  O   UNL     1     -14.295 -43.527  24.150  0.00  0.00    +0.000 OA
ATOM     19  O   UNL     1     -16.227 -43.297  25.184  0.00  0.00    +0.000 OA
ENDBRANCH   7  17
ENDBRANCH   2   4
BRANCH   2   1
ATOM      1  C   UNL     1     -11.590 -45.991  29.960  0.00  0.00    +0.000 C 
ATOM     10  C   UNL     1     -11.053 -45.373  31.034  0.00  0.00    +0.000 C 
BRANCH  10  11
ATOM     11  C   UNL     1      -9.747 -45.283  31.376  0.00  0.00    +0.000 A 
ATOM     12  C   UNL     1      -9.319 -44.167  32.004  0.00  0.00    +0.000 A 
ATOM     13  C   UNL     1      -8.039 -44.003  32.375  0.00  0.00    +0.000 A 
ATOM     14  C   UNL     1      -7.140 -44.964  32.124  0.00  0.00    +0.000 A 
ATOM     15  C   UNL     1      -7.539 -46.082  31.502  0.00  0.00    +0.000 A 
ATOM     16  C   UNL     1      -8.822 -46.234  31.136  0.00  0.00    +0.000 A 
ENDBRANCH  10  11
ENDBRANCH   2   1
TORSDOF 4
ENDMDL
MODEL 6
REMARK VINA RESULT:      -8.7      3.351      4.887
REMARK  Name = Fragment
REMARK  4 active torsions:
REMARK  status: ('A' for Active; 'I' for Inactive)
REMARK    1  A    between atoms: C_1  and  C_2
REMARK    2  A    between atoms: C_2  and  C_4
REMARK    3  A    between atoms: C_7  and  N_17
REMARK    4  A    between atoms: C_10  and  C_11
REMARK                            x       y       z     vdW  Elec       q    Type
REMARK                         _______ _______ _______ _____ _____    ______ ____
ROOT
ATOM      2  C   UNL     1     -15.947 -42.792  24.451  0.00  0.00    +0.000 C 
ATOM      3  O   UNL     1     -15.427 -42.829  23.351  0.00  0.00    +0.000 OA
ENDROOT
BRANCH   2   4
ATOM      4  C   UNL     1     -15.365 -43.386  25.545  0.00  0.00    +0.000 A 
ATOM      5  C   UNL     1     -15.679 -42.963  26.788  0.00  0.00    +0.000 A 
ATOM      6  C   UNL     1     -15.140 -43.508  27.890  0.00  0.00    +0.000 A 
ATOM      7  C   UNL     1     -14.248 -44.513  27.821  0.00  0.00    +0.000 A 
ATOM      8  C   UNL     1     -13.930 -44.940  26.586  0.00  0.00    +0.000 A 
ATOM      9  C   UNL     1     -14.470 -44.394  25.485  0.00  0.00    +0.000 A 
BRANCH   7  17
ATOM     17  N   UNL     1     -13.736 -45.031  28.846  0.00  0.00    +0.000 N 
ATOM     18  O   UNL     1     -13.042 -46.146  28.815  0.00  0.00    +0.000 OA
ATOM     19  O   UNL     1     -13.850 -44.503  30.042  0.00  0.00    +0.000 OA
ENDBRANCH   7  17
ENDBRANCH   2   4
BRANCH   2   1
ATOM      1  C   UNL     1     -17.143 -42.133  24.560  0.00  0.00    +0.000 C 
ATOM     10  C   UNL     1     -18.141 -42.481  25.402  0.00  0.00    +0.000 C 
BRANCH  10  11
ATOM     11  C   UNL     1     -19.342 -41.879  25.563  0.00  0.00    +0.000 A 
ATOM     12  C   UNL     1     -20.016 -41.477  24.464  0.00  0.00    +0.000 A 
ATOM     13  C   UNL     1     -21.214 -40.874  24.543  0.00  0.00    +0.000 A 
ATOM     14  C   UNL     1     -21.777 -40.653  25.738  0.00  0.00    +0.000 A 
ATOM     15  C   UNL     1     -21.128 -41.043  26.844  0.00  0.00    +0.000 A 
ATOM     16  C   UNL     1     -19.931 -41.645  26.753  0.00  0.00    +0.000 A 
ENDBRANCH  10  11
ENDBRANCH   2   1
TORSDOF 4
ENDMDL
MODEL 7
REMARK VINA RESULT:      -8.4      6.193      9.454
REMARK  Name = Fragment
REMARK  4 active torsions:
REMARK  status: ('A' for Active; 'I' for Inactive)
REMARK    1  A    between atoms: C_1  and  C_2
REMARK    2  A    between atoms: C_2  and  C_4
REMARK    3  A    between atoms: C_7  and  N_17
REMARK    4  A    between atoms: C_10  and  C_11
REMARK                            x       y       z     vdW  Elec       q    Type
REMARK                         _______ _______ _______ _____ _____    ______ ____
ROOT
ATOM      2  C   UNL     1     -19.603 -41.933  24.988  0.00  0.00    +0.000 C 
ATOM      3  O   UNL     1     -20.432 -41.896  25.879  0.00  0.00    +0.000 OA
ENDROOT
BRANCH   2   4
ATOM      4  C   UNL     1     -19.766 -41.225  23.822  0.00  0.00    +0.000 A 
ATOM      5  C   UNL     1     -18.834 -41.306  22.849  0.00  0.00    +0.000 A 
ATOM      6  C   UNL     1     -18.943 -40.635  21.691  0.00  0.00    +0.000 A 
ATOM      7  C   UNL     1     -19.995 -39.837  21.430  0.00  0.00    +0.000 A 
ATOM      8  C   UNL     1     -20.928 -39.751  22.394  0.00  0.00    +0.000 A 
ATOM      9  C   UNL     1     -20.817 -40.422  23.552  0.00  0.00    +0.000 A 
BRANCH   7  17
ATOM     17  N   UNL     1     -20.108 -39.204  20.350  0.00  0.00    +0.000 N 
ATOM     18  O   UNL     1     -20.956 -38.214  20.185  0.00  0.00    +0.000 OA
ATOM     19  O   UNL     1     -19.388 -39.476  19.287  0.00  0.00    +0.000 OA
ENDBRANCH   7  17
ENDBRANCH   2   4
BRANCH   2   1
ATOM      1  C   UNL     1     -18.495 -42.713  25.191  0.00  0.00    +0.000 C 
ATOM     10  C   UNL     1     -17.357 -42.293  25.784  0.00  0.00    +0.000 C 
BRANCH  10  11
ATOM     11  C   UNL     1     -16.229 -43.003  26.017  0.00  0.00    +0.000 A 
ATOM     12  C   UNL     1     -15.544 -43.493  24.962  0.00  0.00    +0.000 A 
ATOM     13  C   UNL     1     -14.416 -44.207  25.112  0.00  0.00    +0.000 A 
ATOM     14  C   UNL     1     -13.936 -44.453  26.339  0.00  0.00    +0.000 A 
ATOM     15  C   UNL     1     -14.597 -43.977  27.403  0.00  0.00    +0.000 A 
ATOM     16  C   UNL     1     -15.724 -43.265  27.240  0.00  0.00    +0.000 A 
ENDBRANCH  10  11
ENDBRANCH   2   1
TORSDOF 4
ENDMDL
MODEL 8
REMARK VINA RESULT:      -8.3      3.534      5.415
REMARK  Name = Fragment
REMARK  4 active torsions:
REMARK  status: ('A' for Active; 'I' for Inactive)
REMARK    1  A    between atoms: C_1  and  C_2
REMARK    2  A    between atoms: C_2  and  C_4
REMARK    3  A    between atoms: C_7  and  N_17
REMARK    4  A    between atoms: C_10  and  C_11
REMARK                            x       y       z     vdW  Elec       q    Type
REMARK                         _______ _______ _______ _____ _____    ______ ____
ROOT
ATOM      2  C   UNL     1     -16.054 -42.170  23.694  0.00  0.00    +0.000 C 
ATOM      3  O   UNL     1     -15.307 -41.672  22.872  0.00  0.00    +0.000 OA
ENDROOT
BRANCH   2   4
ATOM      4  C   UNL     1     -15.573 -42.817  24.807  0.00  0.00    +0.000 A 
ATOM      5  C   UNL     1     -16.068 -42.518  26.027  0.00  0.00    +0.000 A 
ATOM      6  C   UNL     1     -15.634 -43.119  27.146  0.00  0.00    +0.000 A 
ATOM      7  C   UNL     1     -14.675 -44.062  27.118  0.00  0.00    +0.000 A 
ATOM      8  C   UNL     1     -14.176 -44.366  25.907  0.00  0.00    +0.000 A 
ATOM      9  C   UNL     1     -14.611 -43.763  24.789  0.00  0.00    +0.000 A 
BRANCH   7  17
ATOM     17  N   UNL     1     -14.260 -44.632  28.159  0.00  0.00    +0.000 N 
ATOM     18  O   UNL     1     -13.394 -45.620  28.140  0.00  0.00    +0.000 OA
ATOM     19  O   UNL     1     -14.656 -44.291  29.363  0.00  0.00    +0.000 OA
ENDBRANCH   7  17
ENDBRANCH   2   4
BRANCH   2   1
ATOM      1  C   UNL     1     -17.401 -42.062  23.469  0.00  0.00    +0.000 C 
ATOM     10  C   UNL     1     -17.966 -41.233  22.565  0.00  0.00    +0.000 C 
BRANCH  10  11
ATOM     11  C   UNL     1     -19.281 -41.073  22.289  0.00  0.00    +0.000 A 
ATOM     12  C   UNL     1     -20.030 -42.171  22.054  0.00  0.00    +0.000 A 
ATOM     13  C   UNL     1     -21.342 -42.094  21.774  0.00  0.00    +0.000 A 
ATOM     14  C   UNL     1     -21.947 -40.900  21.720  0.00  0.00    +0.000 A 
ATOM     15  C   UNL     1     -21.226 -39.794  21.950  0.00  0.00    +0.000 A 
ATOM     16  C   UNL     1     -19.915 -39.884  22.229  0.00  0.00    +0.000 A 
ENDBRANCH  10  11
ENDBRANCH   2   1
TORSDOF 4
ENDMDL
MODEL 9
REMARK VINA RESULT:      -8.2      5.138      7.620
REMARK  Name = Fragment
REMARK  4 active torsions:
REMARK  status: ('A' for Active; 'I' for Inactive)
REMARK    1  A    between atoms: C_1  and  C_2
REMARK    2  A    between atoms: C_2  and  C_4
REMARK    3  A    between atoms: C_7  and  N_17
REMARK    4  A    between atoms: C_10  and  C_11
REMARK                            x       y       z     vdW  Elec       q    Type
REMARK                         _______ _______ _______ _____ _____    ______ ____
ROOT
ATOM      2  C   UNL     1     -19.521 -42.231  27.202  0.00  0.00    +0.000 C 
ATOM      3  O   UNL     1     -19.687 -43.025  28.111  0.00  0.00    +0.000 OA
ENDROOT
BRANCH   2   4
ATOM      4  C   UNL     1     -18.468 -42.345  26.328  0.00  0.00    +0.000 A 
ATOM      5  C   UNL     1     -17.227 -42.593  26.798  0.00  0.00    +0.000 A 
ATOM      6  C   UNL     1     -16.162 -42.714  25.988  0.00  0.00    +0.000 A 
ATOM      7  C   UNL     1     -16.271 -42.595  24.652  0.00  0.00    +0.000 A 
ATOM      8  C   UNL     1     -17.504 -42.349  24.176  0.00  0.00    +0.000 A 
ATOM      9  C   UNL     1     -18.567 -42.228  24.987  0.00  0.00    +0.000 A 
BRANCH   7  17
ATOM     17  N   UNL     1     -15.282 -42.707  23.883  0.00  0.00    +0.000 N 
ATOM     18  O   UNL     1     -14.623 -43.832  23.721  0.00  0.00    +0.000 OA
ATOM     19  O   UNL     1     -14.818 -41.706  23.172  0.00  0.00    +0.000 OA
ENDBRANCH   7  17
ENDBRANCH   2   4
BRANCH   2   1
ATOM      1  C   UNL     1     -20.430 -41.213  27.083  0.00  0.00    +0.000 C 
ATOM     10  C   UNL     1     -21.702 -41.362  26.653  0.00  0.00    +0.000 C 
BRANCH  10  11
ATOM     11  C   UNL     1     -22.650 -40.407  26.510  0.00  0.00    +0.000 A 
ATOM     12  C   UNL     1     -23.112 -40.135  25.271  0.00  0.00    +0.000 A 
ATOM     13  C   UNL     1     -24.051 -39.201  25.049  0.00  0.00    +0.000 A 
ATOM     14  C   UNL     1     -24.562 -38.506  26.074  0.00  0.00    +0.000 A 
ATOM     15  C   UNL     1     -24.121 -38.758  27.314  0.00  0.00    +0.000 A 
ATOM     16  C   UNL     1     -23.181 -39.693  27.524  0.00  0.00    +0.000 A 
ENDBRANCH  10  11
ENDBRANCH   2   1
TORSDOF 4
ENDMDL
MODEL 10
REMARK VINA RESULT:      -8.2      6.380     10.210
REMARK  Name = Fragment
REMARK  4 active torsions:
REMARK  status: ('A' for Active; 'I' for Inactive)
REMARK    1  A    between atoms: C_1  and  C_2
REMARK    2  A    between atoms: C_2  and  C_4
REMARK    3  A    between atoms: C_7  and  N_17
REMARK    4  A    between atoms: C_10  and  C_11
REMARK                            x       y       z     vdW  Elec       q    Type
REMARK                         _______ _______ _______ _____ _____    ______ ____
ROOT
ATOM      2  C   UNL     1     -17.476 -40.937  22.154  0.00  0.00    +0.000 C 
ATOM      3  O   UNL     1     -16.622 -40.575  21.366  0.00  0.00    +0.000 OA
ENDROOT
BRANCH   2   4
ATOM      4  C   UNL     1     -18.779 -40.514  22.049  0.00  0.00    +0.000 A 
ATOM      5  C   UNL     1     -19.206 -39.921  20.914  0.00  0.00    +0.000 A 
ATOM      6  C   UNL     1     -20.468 -39.489  20.758  0.00  0.00    +0.000 A 
ATOM      7  C   UNL     1     -21.387 -39.623  21.731  0.00  0.00    +0.000 A 
ATOM      8  C   UNL     1     -20.971 -40.213  22.865  0.00  0.00    +0.000 A 
ATOM      9  C   UNL     1     -19.709 -40.644  23.019  0.00  0.00    +0.000 A 
BRANCH   7  17
ATOM     17  N   UNL     1     -22.572 -39.223  21.598  0.00  0.00    +0.000 N 
ATOM     18  O   UNL     1     -23.369 -39.648  20.644  0.00  0.00    +0.000 OA
ATOM     19  O   UNL     1     -23.120 -38.343  22.402  0.00  0.00    +0.000 OA
ENDBRANCH   7  17
ENDBRANCH   2   4
BRANCH   2   1
ATOM      1  C   UNL     1     -17.089 -41.787  23.156  0.00  0.00    +0.000 C 
ATOM     10  C   UNL     1     -15.821 -41.927  23.600  0.00  0.00    +0.000 C 
BRANCH  10  11
ATOM     11  C   UNL     1     -15.367 -42.742  24.580  0.00  0.00    +0.000 A 
ATOM     12  C   UNL     1     -14.726 -43.878  24.231  0.00  0.00    +0.000 A 
ATOM     13  C   UNL     1     -14.247 -44.737  25.145  0.00  0.00    +0.000 A 
ATOM     14  C   UNL     1     -14.399 -44.480  26.452  0.00  0.00    +0.000 A 
ATOM     15  C   UNL     1     -15.031 -43.359  26.825  0.00  0.00    +0.000 A 
ATOM     16  C   UNL     1     -15.506 -42.508  25.901  0.00  0.00    +0.000 A 
ENDBRANCH  10  11
ENDBRANCH   2   1
TORSDOF 4
ENDMDL
