MODEL 1
REMARK VINA RESULT:      -9.8      0.000      0.000
REMARK  Name = Fragment
REMARK  4 active torsions:
REMARK  status: ('A' for Active; 'I' for Inactive)
REMARK    1  A    between atoms: C_1  and  C_2
REMARK    2  A    between atoms: C_2  and  C_4
REMARK    3  A    between atoms: C_10  and  C_11
REMARK    4  A    between atoms: C_14  and  O_17
REMARK                            x       y       z     vdW  Elec       q    Type
REMARK                         _______ _______ _______ _____ _____    ______ ____
ROOT
ATOM      1  C   UNL     1     -11.554 -45.887  31.243  0.00  0.00    +0.000 C 
ATOM     10  C   UNL     1     -11.031 -44.650  31.374  0.00  0.00    +0.000 C 
ENDROOT
BRANCH  10  11
ATOM     11  C   UNL     1      -9.826 -44.308  31.884  0.00  0.00    +0.000 A 
ATOM     12  C   UNL     1      -8.737 -45.013  31.514  0.00  0.00    +0.000 A 
ATOM     13  C   UNL     1      -7.511 -44.728  31.980  0.00  0.00    +0.000 A 
ATOM     14  C   UNL     1      -7.310 -43.721  32.844  0.00  0.00    +0.000 A 
ATOM     15  C   UNL     1      -8.388 -43.014  33.218  0.00  0.00    +0.000 A 
ATOM     16  C   UNL     1      -9.614 -43.298  32.752  0.00  0.00    +0.000 A 
BRANCH  14  17
ATOM     17  O   UNL     1      -6.072 -43.425  33.324  0.00  0.00    +0.000 OA
ATOM     18  H   UNL     1      -5.823 -42.533  33.028  0.00  0.00    +0.000 HD
ENDBRANCH  14  17
ENDBRANCH  10  11
BRANCH   1   2
ATOM      2  C   UNL     1     -12.788 -46.155  30.714  0.00  0.00    +0.000 C 
ATOM      3  O   UNL     1     -13.604 -46.737  31.407  0.00  0.00    +0.000 OA
BRANCH   2   4
ATOM      4  C   UNL     1     -13.114 -45.782  29.431  0.00  0.00    +0.000 A 
ATOM      5  C   UNL     1     -12.537 -46.418  28.386  0.00  0.00    +0.000 A 
ATOM      6  C   UNL     1     -12.809 -46.104  27.109  0.00  0.00    +0.000 A 
ATOM      7  C   UNL     1     -13.682 -45.129  26.828  0.00  0.00    +0.000 A 
ATOM      8  C   UNL     1     -14.271 -44.480  27.840  0.00  0.00    +0.000 A 
ATOM      9  C   UNL     1     -13.990 -44.803  29.113  0.00  0.00    +0.000 A 
ENDBRANCH   2   4
ENDBRANCH   1   2
TORSDOF 4
ENDMDL
MODEL 2
REMARK VINA RESULT:      -9.6      3.459      5.955
REMARK  Name = Fragment
REMARK  4 active torsions:
REMARK  status: ('A' for Active; 'I' for Inactive)
REMARK    1  A    between atoms: C_1  and  C_2
REMARK    2  A    between atoms: C_2  and  C_4
REMARK    3  A    between atoms: C_10  and  C_11
REMARK    4  A    between atoms: C_14  and  O_17
REMARK                            x       y       z     vdW  Elec       q    Type
REMARK                         _______ _______ _______ _____ _____    ______ ____
ROOT
ATOM      1  C   UNL     1     -13.977 -43.690  26.449  0.00  0.00    +0.000 C 
ATOM     10  C   UNL     1     -13.760 -44.961  26.849  0.00  0.00    +0.000 C 
ENDROOT
BRANCH  10  11
ATOM     11  C   UNL     1     -13.056 -45.385  27.922  0.00  0.00    +0.000 A 
ATOM     12  C   UNL     1     -13.569 -45.194  29.155  0.00  0.00    +0.000 A 
ATOM     13  C   UNL     1     -12.925 -45.589  30.264  0.00  0.00    +0.000 A 
ATOM     14  C   UNL     1     -11.731 -46.199  30.198  0.00  0.00    +0.000 A 
ATOM     15  C   UNL     1     -11.214 -46.394  28.976  0.00  0.00    +0.000 A 
ATOM     16  C   UNL     1     -11.857 -45.998  27.865  0.00  0.00    +0.000 A 
BRANCH  14  17
ATOM     17  O   UNL     1     -11.070 -46.603  31.316  0.00  0.00    +0.000 OA
ATOM     18  H   UNL     1     -10.671 -47.473  31.150  0.00  0.00    +0.000 HD
ENDBRANCH  14  17
ENDBRANCH  10  11
BRANCH   1   2
ATOM      2  C   UNL     1     -14.705 -43.338  25.344  0.00  0.00    +0.000 C 
ATOM      3  O   UNL     1     -14.160 -43.371  24.255  0.00  0.00    +0.000 OA
BRANCH   2   4
ATOM      4  C   UNL     1     -16.022 -42.955  25.445  0.00  0.00    +0.000 A 
ATOM      5  C   UNL     1     -16.558 -42.730  26.667  0.00  0.00    +0.000 A 
ATOM      6  C   UNL     1     -17.835 -42.354  26.837  0.00  0.00    +0.000 A 
ATOM      7  C   UNL     1     -18.634 -42.186  25.776  0.00  0.00    +0.000 A 
ATOM      8  C   UNL     1     -18.134 -42.401  24.553  0.00  0.00    +0.000 A 
ATOM      9  C   UNL     1     -16.854 -42.778  24.396  0.00  0.00    +0.000 A 
ENDBRANCH   2   4
ENDBRANCH   1   2
TORSDOF 4
ENDMDL
MODEL 3
REMARK VINA RESULT:      -9.4      3.172      7.533
REMARK  Name = Fragment
REMARK  4 active torsions:
REMARK  status: ('A' for Active; 'I' for Inactive)
REMARK    1  A    between atoms: C_1  and  C_2
REMARK    2  A    between atoms: C_2  and  C_4
REMARK    3  A    between atoms: C_10  and  C_11
REMARK    4  A    between atoms: C_14  and  O_17
REMARK                            x       y       z     vdW  Elec       q    Type
REMARK                         _______ _______ _______ _____ _____    ______ ____
ROOT
ATOM      1  C   UNL     1     -13.356 -45.275  28.039  0.00  0.00    +0.000 C 
ATOM     10  C   UNL     1     -14.356 -44.421  27.736  0.00  0.00    +0.000 C 
ENDROOT
BRANCH  10  11
ATOM     11  C   UNL     1     -14.736 -43.986  26.514  0.00  0.00    +0.000 A 
ATOM     12  C   UNL     1     -15.609 -42.961  26.430  0.00  0.00    +0.000 A 
ATOM     13  C   UNL     1     -16.030 -42.478  25.250  0.00  0.00    +0.000 A 
ATOM     14  C   UNL     1     -15.597 -42.996  24.090  0.00  0.00    +0.000 A 
ATOM     15  C   UNL     1     -14.728 -44.016  24.164  0.00  0.00    +0.000 A 
ATOM     16  C   UNL     1     -14.308 -44.500  25.344  0.00  0.00    +0.000 A 
BRANCH  14  17
ATOM     17  O   UNL     1     -16.017 -42.515  22.889  0.00  0.00    +0.000 OA
ATOM     18  H   UNL     1     -15.783 -43.151  22.194  0.00  0.00    +0.000 HD
ENDBRANCH  14  17
ENDBRANCH  10  11
BRANCH   1   2
ATOM      2  C   UNL     1     -13.031 -45.670  29.309  0.00  0.00    +0.000 C 
ATOM      3  O   UNL     1     -13.916 -45.729  30.144  0.00  0.00    +0.000 OA
BRANCH   2   4
ATOM      4  C   UNL     1     -11.739 -45.997  29.650  0.00  0.00    +0.000 A 
ATOM      5  C   UNL     1     -11.391 -46.060  30.955  0.00  0.00    +0.000 A 
ATOM      6  C   UNL     1     -10.149 -46.372  31.357  0.00  0.00    +0.000 A 
ATOM      7  C   UNL     1      -9.196 -46.637  30.455  0.00  0.00    +0.000 A 
ATOM      8  C   UNL     1      -9.509 -46.583  29.154  0.00  0.00    +0.000 A 
ATOM      9  C   UNL     1     -10.755 -46.269  28.764  0.00  0.00    +0.000 A 
ENDBRANCH   2   4
ENDBRANCH   1   2
TORSDOF 4
ENDMDL
MODEL 4
REMARK VINA RESULT:      -9.4      4.553      8.745
REMARK  Name = Fragment
REMARK  4 active torsions:
REMARK  status: ('A' for Active; 'I' for Inactive)
REMARK    1  A    between atoms: C_1  and  C_2
REMARK    2  A    between atoms: C_2  and  C_4
REMARK    3  A    between atoms: C_10  and  C_11
REMARK    4  A    between atoms: C_14  and  O_17
REMARK                            x       y       z     vdW  Elec       q    Type
REMARK                         _______ _______ _______ _____ _____    ______ ____
ROOT
ATOM      1  C   UNL     1     -14.589 -43.552  26.584  0.00  0.00    +0.000 C 
ATOM     10  C   UNL     1     -15.843 -43.305  26.152  0.00  0.00    +0.000 C 
ENDROOT
BRANCH  10  11
ATOM     11  C   UNL     1     -16.222 -42.706  25.000  0.00  0.00    +0.000 A 
ATOM     12  C   UNL     1     -15.277 -42.151  24.213  0.00  0.00    +0.000 A 
ATOM     13  C   UNL     1     -15.581 -41.541  23.056  0.00  0.00    +0.000 A 
ATOM     14  C   UNL     1     -16.850 -41.454  22.626  0.00  0.00    +0.000 A 
ATOM     15  C   UNL     1     -17.796 -42.004  23.403  0.00  0.00    +0.000 A 
ATOM     16  C   UNL     1     -17.492 -42.614  24.560  0.00  0.00    +0.000 A 
BRANCH  14  17
ATOM     17  O   UNL     1     -17.169 -40.838  21.457  0.00  0.00    +0.000 OA
ATOM     18  H   UNL     1     -17.550 -39.966  21.653  0.00  0.00    +0.000 HD
ENDBRANCH  14  17
ENDBRANCH  10  11
BRANCH   1   2
ATOM      2  C   UNL     1     -14.284 -44.166  27.769  0.00  0.00    +0.000 C 
ATOM      3  O   UNL     1     -15.027 -43.995  28.720  0.00  0.00    +0.000 OA
BRANCH   2   4
ATOM      4  C   UNL     1     -13.169 -44.961  27.900  0.00  0.00    +0.000 A 
ATOM      5  C   UNL     1     -12.208 -44.619  28.788  0.00  0.00    +0.000 A 
ATOM      6  C   UNL     1     -11.095 -45.348  28.964  0.00  0.00    +0.000 A 
ATOM      7  C   UNL     1     -10.902 -46.464  28.250  0.00  0.00    +0.000 A 
ATOM      8  C   UNL     1     -11.835 -46.830  27.363  0.00  0.00    +0.000 A 
ATOM      9  C   UNL     1     -12.944 -46.091  27.194  0.00  0.00    +0.000 A 
ENDBRANCH   2   4
ENDBRANCH   1   2
TORSDOF 4
ENDMDL
MODEL 5
REMARK VINA RESULT:      -9.3      2.430      6.956
REMARK  Name = Fragment
REMARK  4 active torsions:
REMARK  status: ('A' for Active; 'I' for Inactive)
REMARK    1  A    between atoms: C_1  and  C_2
REMARK    2  A    between atoms: C_2  and  C_4
REMARK    3  A    between atoms: C_10  and  C_11
REMARK    4  A    between atoms: C_14  and  O_17
REMARK                            x       y       z     vdW  Elec       q    Type
REMARK                         _______ _______ _______ _____ _____    ______ ____
ROOT
ATOM      1  C   UNL     1     -13.810 -45.078  29.819  0.00  0.00    +0.000 C 
ATOM     10  C   UNL     1     -13.591 -45.183  28.491  0.00  0.00    +0.000 C 
ENDROOT
BRANCH  10  11
ATOM     11  C   UNL     1     -14.210 -44.515  27.491  0.00  0.00    +0.000 A 
ATOM     12  C   UNL     1     -15.117 -43.567  27.805  0.00  0.00    +0.000 A 
ATOM     13  C   UNL     1     -15.769 -42.866  26.864  0.00  0.00    +0.000 A 
ATOM     14  C   UNL     1     -15.548 -43.077  25.557  0.00  0.00    +0.000 A 
ATOM     15  C   UNL     1     -14.647 -44.018  25.237  0.00  0.00    +0.000 A 
ATOM     16  C   UNL     1     -13.994 -44.720  26.177  0.00  0.00    +0.000 A 
BRANCH  14  17
ATOM     17  O   UNL     1     -16.204 -42.373  24.597  0.00  0.00    +0.000 OA
ATOM     18  H   UNL     1     -15.796 -42.558  23.735  0.00  0.00    +0.000 HD
ENDBRANCH  14  17
ENDBRANCH  10  11
BRANCH   1   2
ATOM      2  C   UNL     1     -13.138 -45.792  30.774  0.00  0.00    +0.000 C 
ATOM      3  O   UNL     1     -13.679 -46.772  31.255  0.00  0.00    +0.000 OA
BRANCH   2   4
ATOM      4  C   UNL     1     -11.881 -45.424  31.192  0.00  0.00    +0.000 A 
ATOM      5  C   UNL     1     -10.847 -46.281  31.027  0.00  0.00    +0.000 A 
ATOM      6  C   UNL     1      -9.596 -45.986  31.413  0.00  0.00    +0.000 A 
ATOM      7  C   UNL     1      -9.328 -44.806  31.985  0.00  0.00    +0.000 A 
ATOM      8  C   UNL     1     -10.330 -43.935  32.163  0.00  0.00    +0.000 A 
ATOM      9  C   UNL     1     -11.578 -44.242  31.774  0.00  0.00    +0.000 A 
ENDBRANCH   2   4
ENDBRANCH   1   2
TORSDOF 4
ENDMDL
MODEL 6
REMARK VINA RESULT:      -9.2      4.164      6.620
REMARK  Name = Fragment
REMARK  4 active torsions:
REMARK  status: ('A' for Active; 'I' for Inactive)
REMARK    1  A    between atoms: C_1  and  C_2
REMARK    2  A    between atoms: C_2  and  C_4
REMARK    3  A    between atoms: C_10  and  C_11
REMARK    4  A    between atoms: C_14  and  O_17
REMARK                            x       y       z     vdW  Elec       q    Type
REMARK                         _______ _______ _______ _____ _____    ______ ____
ROOT
ATOM      1  C   UNL     1     -15.114 -43.184  26.045  0.00  0.00    +0.000 C 
ATOM     10  C   UNL     1     -14.451 -44.355  26.143  0.00  0.00    +0.000 C 
ENDROOT
BRANCH  10  11
ATOM     11  C   UNL     1     -13.382 -44.642  26.921  0.00  0.00    +0.000 A 
ATOM     12  C   UNL     1     -13.067 -45.935  27.144  0.00  0.00    +0.000 A 
ATOM     13  C   UNL     1     -12.021 -46.292  27.905  0.00  0.00    +0.000 A 
ATOM     14  C   UNL     1     -11.233 -45.372  28.485  0.00  0.00    +0.000 A 
ATOM     15  C   UNL     1     -11.540 -44.084  28.269  0.00  0.00    +0.000 A 
ATOM     16  C   UNL     1     -12.586 -43.726  27.507  0.00  0.00    +0.000 A 
BRANCH  14  17
ATOM     17  O   UNL     1     -10.172 -45.724  29.259  0.00  0.00    +0.000 OA
ATOM     18  H   UNL     1     -10.452 -45.747  30.189  0.00  0.00    +0.000 HD
ENDBRANCH  14  17
ENDBRANCH  10  11
BRANCH   1   2
ATOM      2  C   UNL     1     -16.193 -42.970  25.230  0.00  0.00    +0.000 C 
ATOM      3  O   UNL     1     -16.068 -43.172  24.035  0.00  0.00    +0.000 OA
BRANCH   2   4
ATOM      4  C   UNL     1     -17.398 -42.538  25.733  0.00  0.00    +0.000 A 
ATOM      5  C   UNL     1     -17.586 -42.504  27.073  0.00  0.00    +0.000 A 
ATOM      6  C   UNL     1     -18.737 -42.095  27.630  0.00  0.00    +0.000 A 
ATOM      7  C   UNL     1     -19.754 -41.696  26.857  0.00  0.00    +0.000 A 
ATOM      8  C   UNL     1     -19.600 -41.718  25.528  0.00  0.00    +0.000 A 
ATOM      9  C   UNL     1     -18.444 -42.131  24.981  0.00  0.00    +0.000 A 
ENDBRANCH   2   4
ENDBRANCH   1   2
TORSDOF 4
ENDMDL
MODEL 7
REMARK VINA RESULT:      -8.5      5.532      9.680
REMARK  Name = Fragment
REMARK  4 active torsions:
REMARK  status: ('A' for Active; 'I' for Inactive)
REMARK    1  A    between atoms: C_1  and  C_2
REMARK    2  A    between atoms: C_2  and  C_4
REMARK    3  A    between atoms: C_10  and  C_11
REMARK    4  A    between atoms: C_14  and  O_17
REMARK                            x       y       z     vdW  Elec       q    Type
REMARK                         _______ _______ _______ _____ _____    ______ ____
ROOT
ATOM      1  C   UNL     1     -16.151 -43.262  24.598  0.00  0.00    +0.000 C 
ATOM     10  C   UNL     1     -16.746 -42.832  25.730  0.00  0.00    +0.000 C 
ENDROOT
BRANCH  10  11
ATOM     11  C   UNL     1     -17.993 -42.328  25.873  0.00  0.00    +0.000 A 
ATOM     12  C   UNL     1     -18.498 -42.182  27.116  0.00  0.00    +0.000 A 
ATOM     13  C   UNL     1     -19.728 -41.688  27.332  0.00  0.00    +0.000 A 
ATOM     14  C   UNL     1     -20.518 -41.314  26.314  0.00  0.00    +0.000 A 
ATOM     15  C   UNL     1     -20.023 -41.455  25.075  0.00  0.00    +0.000 A 
ATOM     16  C   UNL     1     -18.793 -41.949  24.858  0.00  0.00    +0.000 A 
BRANCH  14  17
ATOM     17  O   UNL     1     -21.765 -40.813  26.522  0.00  0.00    +0.000 OA
ATOM     18  H   UNL     1     -21.737 -40.196  27.271  0.00  0.00    +0.000 HD
ENDBRANCH  14  17
ENDBRANCH  10  11
BRANCH   1   2
ATOM      2  C   UNL     1     -14.878 -43.762  24.534  0.00  0.00    +0.000 C 
ATOM      3  O   UNL     1     -14.446 -44.114  23.450  0.00  0.00    +0.000 OA
BRANCH   2   4
ATOM      4  C   UNL     1     -14.093 -43.872  25.658  0.00  0.00    +0.000 A 
ATOM      5  C   UNL     1     -14.036 -45.051  26.318  0.00  0.00    +0.000 A 
ATOM      6  C   UNL     1     -13.291 -45.226  27.421  0.00  0.00    +0.000 A 
ATOM      7  C   UNL     1     -12.564 -44.214  27.909  0.00  0.00    +0.000 A 
ATOM      8  C   UNL     1     -12.598 -43.034  27.279  0.00  0.00    +0.000 A 
ATOM      9  C   UNL     1     -13.348 -42.871  26.176  0.00  0.00    +0.000 A 
ENDBRANCH   2   4
ENDBRANCH   1   2
TORSDOF 4
ENDMDL
MODEL 8
REMARK VINA RESULT:      -8.0     21.493     22.850
REMARK  Name = Fragment
REMARK  4 active torsions:
REMARK  status: ('A' for Active; 'I' for Inactive)
REMARK    1  A    between atoms: C_1  and  C_2
REMARK    2  A    between atoms: C_2  and  C_4
REMARK    3  A    between atoms: C_10  and  C_11
REMARK    4  A    between atoms: C_14  and  O_17
REMARK                            x       y       z     vdW  Elec       q    Type
REMARK                         _______ _______ _______ _____ _____    ______ ____
ROOT
ATOM      1  C   UNL     1       4.313 -55.476  17.106  0.00  0.00    +0.000 C 
ATOM     10  C   UNL     1       4.453 -54.733  18.223  0.00  0.00    +0.000 C 
ENDROOT
BRANCH  10  11
ATOM     11  C   UNL     1       3.492 -54.355  19.096  0.00  0.00    +0.000 A 
ATOM     12  C   UNL     1       3.374 -53.048  19.409  0.00  0.00    +0.000 A 
ATOM     13  C   UNL     1       2.443 -52.603  20.268  0.00  0.00    +0.000 A 
ATOM     14  C   UNL     1       1.580 -53.444  20.859  0.00  0.00    +0.000 A 
ATOM     15  C   UNL     1       1.691 -54.745  20.554  0.00  0.00    +0.000 A 
ATOM     16  C   UNL     1       2.622 -55.192  19.695  0.00  0.00    +0.000 A 
BRANCH  14  17
ATOM     17  O   UNL     1       0.634 -53.003  21.731  0.00  0.00    +0.000 OA
ATOM     18  H   UNL     1       1.035 -52.351  22.330  0.00  0.00    +0.000 HD
ENDBRANCH  14  17
ENDBRANCH  10  11
BRANCH   1   2
ATOM      2  C   UNL     1       5.340 -55.819  16.268  0.00  0.00    +0.000 C 
ATOM      3  O   UNL     1       6.311 -56.384  16.740  0.00  0.00    +0.000 OA
BRANCH   2   4
ATOM      4  C   UNL     1       5.293 -55.538  14.922  0.00  0.00    +0.000 A 
ATOM      5  C   UNL     1       4.130 -55.700  14.249  0.00  0.00    +0.000 A 
ATOM      6  C   UNL     1       4.015 -55.446  12.936  0.00  0.00    +0.000 A 
ATOM      7  C   UNL     1       5.072 -55.011  12.239  0.00  0.00    +0.000 A 
ATOM      8  C   UNL     1       6.237 -54.840  12.877  0.00  0.00    +0.000 A 
ATOM      9  C   UNL     1       6.340 -55.099  14.191  0.00  0.00    +0.000 A 
ENDBRANCH   2   4
ENDBRANCH   1   2
TORSDOF 4
ENDMDL
MODEL 9
REMARK VINA RESULT:      -8.0      4.345      8.730
REMARK  Name = Fragment
REMARK  4 active torsions:
REMARK  status: ('A' for Active; 'I' for Inactive)
REMARK    1  A    between atoms: C_1  and  C_2
REMARK    2  A    between atoms: C_2  and  C_4
REMARK    3  A    between atoms: C_10  and  C_11
REMARK    4  A    between atoms: C_14  and  O_17
REMARK                            x       y       z     vdW  Elec       q    Type
REMARK                         _______ _______ _______ _____ _____    ______ ____
ROOT
ATOM      1  C   UNL     1     -14.859 -43.680  26.831  0.00  0.00    +0.000 C 
ATOM     10  C   UNL     1     -15.627 -42.593  26.612  0.00  0.00    +0.000 C 
ENDROOT
BRANCH  10  11
ATOM     11  C   UNL     1     -16.977 -42.526  26.559  0.00  0.00    +0.000 A 
ATOM     12  C   UNL     1     -17.584 -42.568  25.355  0.00  0.00    +0.000 A 
ATOM     13  C   UNL     1     -18.919 -42.507  25.228  0.00  0.00    +0.000 A 
ATOM     14  C   UNL     1     -19.718 -42.399  26.302  0.00  0.00    +0.000 A 
ATOM     15  C   UNL     1     -19.122 -42.357  27.503  0.00  0.00    +0.000 A 
ATOM     16  C   UNL     1     -17.787 -42.418  27.631  0.00  0.00    +0.000 A 
BRANCH  14  17
ATOM     17  O   UNL     1     -21.071 -42.335  26.184  0.00  0.00    +0.000 OA
ATOM     18  H   UNL     1     -21.314 -42.462  25.251  0.00  0.00    +0.000 HD
ENDBRANCH  14  17
ENDBRANCH  10  11
BRANCH   1   2
ATOM      2  C   UNL     1     -13.490 -43.668  26.870  0.00  0.00    +0.000 C 
ATOM      3  O   UNL     1     -12.893 -42.938  26.098  0.00  0.00    +0.000 OA
BRANCH   2   4
ATOM      4  C   UNL     1     -12.791 -44.454  27.756  0.00  0.00    +0.000 A 
ATOM      5  C   UNL     1     -13.405 -45.510  28.336  0.00  0.00    +0.000 A 
ATOM      6  C   UNL     1     -12.781 -46.318  29.209  0.00  0.00    +0.000 A 
ATOM      7  C   UNL     1     -11.502 -46.096  29.536  0.00  0.00    +0.000 A 
ATOM      8  C   UNL     1     -10.866 -45.058  28.978  0.00  0.00    +0.000 A 
ATOM      9  C   UNL     1     -11.501 -44.257  28.107  0.00  0.00    +0.000 A 
ENDBRANCH   2   4
ENDBRANCH   1   2
TORSDOF 4
ENDMDL
MODEL 10
REMARK VINA RESULT:      -7.9      8.584     12.960
REMARK  Name = Fragment
REMARK  4 active torsions:
REMARK  status: ('A' for Active; 'I' for Inactive)
REMARK    1  A    between atoms: C_1  and  C_2
REMARK    2  A    between atoms: C_2  and  C_4
REMARK    3  A    between atoms: C_10  and  C_11
REMARK    4  A    between atoms: C_14  and  O_17
REMARK                            x       y       z     vdW  Elec       q    Type
REMARK                         _______ _______ _______ _____ _____    ______ ____
ROOT
ATOM      1  C   UNL     1     -18.541 -41.891  23.242  0.00  0.00    +0.000 C 
ATOM     10  C   UNL     1     -18.367 -40.948  22.291  0.00  0.00    +0.000 C 
ENDROOT
BRANCH  10  11
ATOM     11  C   UNL     1     -19.310 -40.180  21.701  0.00  0.00    +0.000 A 
ATOM     12  C   UNL     1     -20.317 -39.692  22.454  0.00  0.00    +0.000 A 
ATOM     13  C   UNL     1     -21.287 -38.922  21.934  0.00  0.00    +0.000 A 
ATOM     14  C   UNL     1     -21.300 -38.601  20.631  0.00  0.00    +0.000 A 
ATOM     15  C   UNL     1     -20.301 -39.083  19.875  0.00  0.00    +0.000 A 
ATOM     16  C   UNL     1     -19.331 -39.852  20.394  0.00  0.00    +0.000 A 
BRANCH  14  17
ATOM     17  O   UNL     1     -22.278 -37.824  20.094  0.00  0.00    +0.000 OA
ATOM     18  H   UNL     1     -23.132 -38.079  20.480  0.00  0.00    +0.000 HD
ENDBRANCH  14  17
ENDBRANCH  10  11
BRANCH   1   2
ATOM      2  C   UNL     1     -17.530 -42.631  23.793  0.00  0.00    +0.000 C 
ATOM      3  O   UNL     1     -16.839 -43.313  23.056  0.00  0.00    +0.000 OA
BRANCH   2   4
ATOM      4  C   UNL     1     -17.286 -42.616  25.147  0.00  0.00    +0.000 A 
ATOM      5  C   UNL     1     -18.299 -42.347  26.003  0.00  0.00    +0.000 A 
ATOM      6  C   UNL     1     -18.130 -42.316  27.334  0.00  0.00    +0.000 A 
ATOM      7  C   UNL     1     -16.926 -42.558  27.866  0.00  0.00    +0.000 A 
ATOM      8  C   UNL     1     -15.903 -42.827  27.046  0.00  0.00    +0.000 A 
ATOM      9  C   UNL     1     -16.084 -42.855  25.715  0.00  0.00    +0.000 A 
ENDBRANCH   2   4
ENDBRANCH   1   2
TORSDOF 4
ENDMDL
