MODEL 1
REMARK VINA RESULT:     -10.0      0.000      0.000
REMARK  Name = Fragment
REMARK  3 active torsions:
REMARK  status: ('A' for Active; 'I' for Inactive)
REMARK    1  A    between atoms: C_1  and  C_2
REMARK    2  A    between atoms: C_2  and  C_4
REMARK    3  A    between atoms: C_10  and  C_11
REMARK                            x       y       z     vdW  Elec       q    Type
REMARK                         _______ _______ _______ _____ _____    ______ ____
ROOT
ATOM      2  C   UNL     1     -13.243 -45.537  29.318  0.00  0.00    +0.000 C 
ATOM      3  O   UNL     1     -14.095 -45.477  30.186  0.00  0.00    +0.000 OA
ENDROOT
BRANCH   2   4
ATOM      4  C   UNL     1     -11.951 -45.875  29.644  0.00  0.00    +0.000 A 
ATOM      5  C   UNL     1     -11.596 -45.975  30.946  0.00  0.00    +0.000 A 
ATOM      6  C   UNL     1     -10.352 -46.301  31.332  0.00  0.00    +0.000 A 
ATOM      7  C   UNL     1      -9.400 -46.543  30.421  0.00  0.00    +0.000 A 
ATOM      8  C   UNL     1      -9.724 -46.451  29.125  0.00  0.00    +0.000 A 
ATOM      9  C   UNL     1     -10.971 -46.125  28.748  0.00  0.00    +0.000 A 
ATOM     17  F   UNL     1      -8.171 -46.865  30.793  0.00  0.00    +0.000 F 
ENDBRANCH   2   4
BRANCH   2   1
ATOM      1  C   UNL     1     -13.605 -45.262  28.025  0.00  0.00    +0.000 C 
ATOM     10  C   UNL     1     -14.406 -44.239  27.658  0.00  0.00    +0.000 C 
BRANCH  10  11
ATOM     11  C   UNL     1     -14.807 -43.905  26.411  0.00  0.00    +0.000 A 
ATOM     12  C   UNL     1     -15.771 -42.969  26.270  0.00  0.00    +0.000 A 
ATOM     13  C   UNL     1     -16.221 -42.584  25.065  0.00  0.00    +0.000 A 
ATOM     14  C   UNL     1     -15.713 -43.131  23.953  0.00  0.00    +0.000 A 
ATOM     15  C   UNL     1     -14.756 -44.062  24.064  0.00  0.00    +0.000 A 
ATOM     16  C   UNL     1     -14.314 -44.439  25.276  0.00  0.00    +0.000 A 
ENDBRANCH  10  11
ENDBRANCH   2   1
TORSDOF 3
ENDMDL
MODEL 2
REMARK VINA RESULT:      -9.8      3.962      7.344
REMARK  Name = Fragment
REMARK  3 active torsions:
REMARK  status: ('A' for Active; 'I' for Inactive)
REMARK    1  A    between atoms: C_1  and  C_2
REMARK    2  A    between atoms: C_2  and  C_4
REMARK    3  A    between atoms: C_10  and  C_11
REMARK                            x       y       z     vdW  Elec       q    Type
REMARK                         _______ _______ _______ _____ _____    ______ ____
ROOT
ATOM      2  C   UNL     1     -15.384 -43.245  25.017  0.00  0.00    +0.000 C 
ATOM      3  O   UNL     1     -15.306 -43.383  23.810  0.00  0.00    +0.000 OA
ENDROOT
BRANCH   2   4
ATOM      4  C   UNL     1     -16.563 -42.823  25.585  0.00  0.00    +0.000 A 
ATOM      5  C   UNL     1     -16.649 -42.702  26.930  0.00  0.00    +0.000 A 
ATOM      6  C   UNL     1     -17.770 -42.296  27.549  0.00  0.00    +0.000 A 
ATOM      7  C   UNL     1     -18.864 -41.989  26.838  0.00  0.00    +0.000 A 
ATOM      8  C   UNL     1     -18.806 -42.100  25.505  0.00  0.00    +0.000 A 
ATOM      9  C   UNL     1     -17.681 -42.507  24.895  0.00  0.00    +0.000 A 
ATOM     17  F   UNL     1     -19.973 -41.588  27.439  0.00  0.00    +0.000 F 
ENDBRANCH   2   4
BRANCH   2   1
ATOM      1  C   UNL     1     -14.280 -43.518  25.781  0.00  0.00    +0.000 C 
ATOM     10  C   UNL     1     -14.067 -44.685  26.425  0.00  0.00    +0.000 C 
BRANCH  10  11
ATOM     11  C   UNL     1     -13.009 -45.029  27.194  0.00  0.00    +0.000 A 
ATOM     12  C   UNL     1     -12.346 -44.056  27.853  0.00  0.00    +0.000 A 
ATOM     13  C   UNL     1     -11.286 -44.318  28.635  0.00  0.00    +0.000 A 
ATOM     14  C   UNL     1     -10.856 -45.579  28.781  0.00  0.00    +0.000 A 
ATOM     15  C   UNL     1     -11.497 -46.563  28.137  0.00  0.00    +0.000 A 
ATOM     16  C   UNL     1     -12.556 -46.288  27.357  0.00  0.00    +0.000 A 
ENDBRANCH  10  11
ENDBRANCH   2   1
TORSDOF 3
ENDMDL
MODEL 3
REMARK VINA RESULT:      -9.5      2.693      4.092
REMARK  Name = Fragment
REMARK  3 active torsions:
REMARK  status: ('A' for Active; 'I' for Inactive)
REMARK    1  A    between atoms: C_1  and  C_2
REMARK    2  A    between atoms: C_2  and  C_4
REMARK    3  A    between atoms: C_10  and  C_11
REMARK                            x       y       z     vdW  Elec       q    Type
REMARK                         _______ _______ _______ _____ _____    ______ ____
ROOT
ATOM      2  C   UNL     1     -14.119 -43.369  25.958  0.00  0.00    +0.000 C 
ATOM      3  O   UNL     1     -13.715 -43.056  24.853  0.00  0.00    +0.000 OA
ENDROOT
BRANCH   2   4
ATOM      4  C   UNL     1     -13.326 -44.123  26.791  0.00  0.00    +0.000 A 
ATOM      5  C   UNL     1     -13.498 -45.464  26.841  0.00  0.00    +0.000 A 
ATOM      6  C   UNL     1     -12.759 -46.258  27.633  0.00  0.00    +0.000 A 
ATOM      7  C   UNL     1     -11.806 -45.737  28.416  0.00  0.00    +0.000 A 
ATOM      8  C   UNL     1     -11.614 -44.412  28.386  0.00  0.00    +0.000 A 
ATOM      9  C   UNL     1     -12.358 -43.625  27.592  0.00  0.00    +0.000 A 
ATOM     17  F   UNL     1     -11.072 -46.512  29.199  0.00  0.00    +0.000 F 
ENDBRANCH   2   4
BRANCH   2   1
ATOM      1  C   UNL     1     -15.367 -42.953  26.342  0.00  0.00    +0.000 C 
ATOM     10  C   UNL     1     -16.414 -42.807  25.503  0.00  0.00    +0.000 C 
BRANCH  10  11
ATOM     11  C   UNL     1     -17.669 -42.404  25.803  0.00  0.00    +0.000 A 
ATOM     12  C   UNL     1     -18.044 -42.367  27.100  0.00  0.00    +0.000 A 
ATOM     13  C   UNL     1     -19.273 -41.979  27.478  0.00  0.00    +0.000 A 
ATOM     14  C   UNL     1     -20.172 -41.611  26.555  0.00  0.00    +0.000 A 
ATOM     15  C   UNL     1     -19.826 -41.637  25.262  0.00  0.00    +0.000 A 
ATOM     16  C   UNL     1     -18.594 -42.028  24.897  0.00  0.00    +0.000 A 
ENDBRANCH  10  11
ENDBRANCH   2   1
TORSDOF 3
ENDMDL
MODEL 4
REMARK VINA RESULT:      -9.2      3.144      4.866
REMARK  Name = Fragment
REMARK  3 active torsions:
REMARK  status: ('A' for Active; 'I' for Inactive)
REMARK    1  A    between atoms: C_1  and  C_2
REMARK    2  A    between atoms: C_2  and  C_4
REMARK    3  A    between atoms: C_10  and  C_11
REMARK                            x       y       z     vdW  Elec       q    Type
REMARK                         _______ _______ _______ _____ _____    ______ ____
ROOT
ATOM      2  C   UNL     1     -14.962 -43.323  25.207  0.00  0.00    +0.000 C 
ATOM      3  O   UNL     1     -14.775 -43.456  24.011  0.00  0.00    +0.000 OA
ENDROOT
BRANCH   2   4
ATOM      4  C   UNL     1     -14.030 -43.789  26.104  0.00  0.00    +0.000 A 
ATOM      5  C   UNL     1     -13.146 -42.926  26.656  0.00  0.00    +0.000 A 
ATOM      6  C   UNL     1     -12.212 -43.316  27.538  0.00  0.00    +0.000 A 
ATOM      7  C   UNL     1     -12.123 -44.600  27.909  0.00  0.00    +0.000 A 
ATOM      8  C   UNL     1     -12.986 -45.476  27.379  0.00  0.00    +0.000 A 
ATOM      9  C   UNL     1     -13.917 -45.077  26.497  0.00  0.00    +0.000 A 
ATOM     17  F   UNL     1     -11.205 -44.993  28.779  0.00  0.00    +0.000 F 
ENDBRANCH   2   4
BRANCH   2   1
ATOM      1  C   UNL     1     -16.110 -42.704  25.625  0.00  0.00    +0.000 C 
ATOM     10  C   UNL     1     -17.305 -42.812  25.006  0.00  0.00    +0.000 C 
BRANCH  10  11
ATOM     11  C   UNL     1     -18.477 -42.235  25.355  0.00  0.00    +0.000 A 
ATOM     12  C   UNL     1     -18.783 -42.136  26.667  0.00  0.00    +0.000 A 
ATOM     13  C   UNL     1     -19.928 -41.577  27.092  0.00  0.00    +0.000 A 
ATOM     14  C   UNL     1     -20.809 -41.095  26.205  0.00  0.00    +0.000 A 
ATOM     15  C   UNL     1     -20.529 -41.181  24.898  0.00  0.00    +0.000 A 
ATOM     16  C   UNL     1     -19.381 -41.743  24.485  0.00  0.00    +0.000 A 
ENDBRANCH  10  11
ENDBRANCH   2   1
TORSDOF 3
ENDMDL
MODEL 5
REMARK VINA RESULT:      -8.8      4.851      8.275
REMARK  Name = Fragment
REMARK  3 active torsions:
REMARK  status: ('A' for Active; 'I' for Inactive)
REMARK    1  A    between atoms: C_1  and  C_2
REMARK    2  A    between atoms: C_2  and  C_4
REMARK    3  A    between atoms: C_10  and  C_11
REMARK                            x       y       z     vdW  Elec       q    Type
REMARK                         _______ _______ _______ _____ _____    ______ ____
ROOT
ATOM      2  C   UNL     1     -17.110 -42.692  24.991  0.00  0.00    +0.000 C 
ATOM      3  O   UNL     1     -16.847 -42.714  23.802  0.00  0.00    +0.000 OA
ENDROOT
BRANCH   2   4
ATOM      4  C   UNL     1     -18.316 -42.190  25.420  0.00  0.00    +0.000 A 
ATOM      5  C   UNL     1     -18.582 -42.135  26.745  0.00  0.00    +0.000 A 
ATOM      6  C   UNL     1     -19.739 -41.657  27.231  0.00  0.00    +0.000 A 
ATOM      7  C   UNL     1     -20.689 -41.208  26.399  0.00  0.00    +0.000 A 
ATOM      8  C   UNL     1     -20.452 -41.250  25.082  0.00  0.00    +0.000 A 
ATOM      9  C   UNL     1     -19.291 -41.730  24.606  0.00  0.00    +0.000 A 
ATOM     17  F   UNL     1     -21.832 -40.734  26.869  0.00  0.00    +0.000 F 
ENDBRANCH   2   4
BRANCH   2   1
ATOM      1  C   UNL     1     -16.182 -43.177  25.875  0.00  0.00    +0.000 C 
ATOM     10  C   UNL     1     -14.876 -43.360  25.588  0.00  0.00    +0.000 C 
BRANCH  10  11
ATOM     11  C   UNL     1     -13.904 -43.831  26.401  0.00  0.00    +0.000 A 
ATOM     12  C   UNL     1     -12.950 -42.977  26.831  0.00  0.00    +0.000 A 
ATOM     13  C   UNL     1     -11.953 -43.369  27.640  0.00  0.00    +0.000 A 
ATOM     14  C   UNL     1     -11.882 -44.644  28.048  0.00  0.00    +0.000 A 
ATOM     15  C   UNL     1     -12.816 -45.512  27.636  0.00  0.00    +0.000 A 
ATOM     16  C   UNL     1     -13.809 -45.107  26.826  0.00  0.00    +0.000 A 
ENDBRANCH  10  11
ENDBRANCH   2   1
TORSDOF 3
ENDMDL
MODEL 6
REMARK VINA RESULT:      -8.8      4.553      8.219
REMARK  Name = Fragment
REMARK  3 active torsions:
REMARK  status: ('A' for Active; 'I' for Inactive)
REMARK    1  A    between atoms: C_1  and  C_2
REMARK    2  A    between atoms: C_2  and  C_4
REMARK    3  A    between atoms: C_10  and  C_11
REMARK                            x       y       z     vdW  Elec       q    Type
REMARK                         _______ _______ _______ _____ _____    ______ ____
ROOT
ATOM      2  C   UNL     1     -15.413 -42.646  24.156  0.00  0.00    +0.000 C 
ATOM      3  O   UNL     1     -14.591 -42.028  23.504  0.00  0.00    +0.000 OA
ENDROOT
BRANCH   2   4
ATOM      4  C   UNL     1     -16.748 -42.335  24.053  0.00  0.00    +0.000 A 
ATOM      5  C   UNL     1     -17.560 -42.518  25.119  0.00  0.00    +0.000 A 
ATOM      6  C   UNL     1     -18.872 -42.234  25.086  0.00  0.00    +0.000 A 
ATOM      7  C   UNL     1     -19.432 -41.750  23.969  0.00  0.00    +0.000 A 
ATOM      8  C   UNL     1     -18.652 -41.558  22.898  0.00  0.00    +0.000 A 
ATOM      9  C   UNL     1     -17.340 -41.845  22.941  0.00  0.00    +0.000 A 
ATOM     17  F   UNL     1     -20.725 -41.467  23.926  0.00  0.00    +0.000 F 
ENDBRANCH   2   4
BRANCH   2   1
ATOM      1  C   UNL     1     -14.974 -43.646  24.983  0.00  0.00    +0.000 C 
ATOM     10  C   UNL     1     -14.390 -43.443  26.184  0.00  0.00    +0.000 C 
BRANCH  10  11
ATOM     11  C   UNL     1     -13.933 -44.372  27.053  0.00  0.00    +0.000 A 
ATOM     12  C   UNL     1     -13.249 -45.431  26.568  0.00  0.00    +0.000 A 
ATOM     13  C   UNL     1     -12.764 -46.395  27.368  0.00  0.00    +0.000 A 
ATOM     14  C   UNL     1     -12.952 -46.324  28.692  0.00  0.00    +0.000 A 
ATOM     15  C   UNL     1     -13.627 -45.284  29.199  0.00  0.00    +0.000 A 
ATOM     16  C   UNL     1     -14.107 -44.326  28.389  0.00  0.00    +0.000 A 
ENDBRANCH  10  11
ENDBRANCH   2   1
TORSDOF 3
ENDMDL
MODEL 7
REMARK VINA RESULT:      -8.3      5.594      8.148
REMARK  Name = Fragment
REMARK  3 active torsions:
REMARK  status: ('A' for Active; 'I' for Inactive)
REMARK    1  A    between atoms: C_1  and  C_2
REMARK    2  A    between atoms: C_2  and  C_4
REMARK    3  A    between atoms: C_10  and  C_11
REMARK                            x       y       z     vdW  Elec       q    Type
REMARK                         _______ _______ _______ _____ _____    ______ ____
ROOT
ATOM      2  C   UNL     1     -17.645 -42.511  23.904  0.00  0.00    +0.000 C 
ATOM      3  O   UNL     1     -16.931 -43.175  23.175  0.00  0.00    +0.000 OA
ENDROOT
BRANCH   2   4
ATOM      4  C   UNL     1     -17.440 -42.522  25.263  0.00  0.00    +0.000 A 
ATOM      5  C   UNL     1     -18.477 -42.278  26.096  0.00  0.00    +0.000 A 
ATOM      6  C   UNL     1     -18.345 -42.274  27.433  0.00  0.00    +0.000 A 
ATOM      7  C   UNL     1     -17.155 -42.518  27.997  0.00  0.00    +0.000 A 
ATOM      8  C   UNL     1     -16.110 -42.763  27.196  0.00  0.00    +0.000 A 
ATOM      9  C   UNL     1     -16.252 -42.764  25.860  0.00  0.00    +0.000 A 
ATOM     17  F   UNL     1     -17.016 -42.516  29.314  0.00  0.00    +0.000 F 
ENDBRANCH   2   4
BRANCH   2   1
ATOM      1  C   UNL     1     -18.643 -41.762  23.338  0.00  0.00    +0.000 C 
ATOM     10  C   UNL     1     -18.485 -40.974  22.253  0.00  0.00    +0.000 C 
BRANCH  10  11
ATOM     11  C   UNL     1     -19.416 -40.209  21.639  0.00  0.00    +0.000 A 
ATOM     12  C   UNL     1     -20.425 -39.700  22.379  0.00  0.00    +0.000 A 
ATOM     13  C   UNL     1     -21.386 -38.932  21.841  0.00  0.00    +0.000 A 
ATOM     14  C   UNL     1     -21.365 -38.649  20.532  0.00  0.00    +0.000 A 
ATOM     15  C   UNL     1     -20.375 -39.141  19.776  0.00  0.00    +0.000 A 
ATOM     16  C   UNL     1     -19.418 -39.908  20.325  0.00  0.00    +0.000 A 
ENDBRANCH  10  11
ENDBRANCH   2   1
TORSDOF 3
ENDMDL
MODEL 8
REMARK VINA RESULT:      -8.2     20.171     22.317
REMARK  Name = Fragment
REMARK  3 active torsions:
REMARK  status: ('A' for Active; 'I' for Inactive)
REMARK    1  A    between atoms: C_1  and  C_2
REMARK    2  A    between atoms: C_2  and  C_4
REMARK    3  A    between atoms: C_10  and  C_11
REMARK                            x       y       z     vdW  Elec       q    Type
REMARK                         _______ _______ _______ _____ _____    ______ ____
ROOT
ATOM      2  C   UNL     1       4.196 -55.506  18.635  0.00  0.00    +0.000 C 
ATOM      3  O   UNL     1       4.623 -56.514  19.169  0.00  0.00    +0.000 OA
ENDROOT
BRANCH   2   4
ATOM      4  C   UNL     1       3.376 -54.652  19.333  0.00  0.00    +0.000 A 
ATOM      5  C   UNL     1       2.327 -55.153  20.027  0.00  0.00    +0.000 A 
ATOM      6  C   UNL     1       1.488 -54.374  20.730  0.00  0.00    +0.000 A 
ATOM      7  C   UNL     1       1.666 -53.047  20.768  0.00  0.00    +0.000 A 
ATOM      8  C   UNL     1       2.696 -52.524  20.090  0.00  0.00    +0.000 A 
ATOM      9  C   UNL     1       3.530 -53.311  19.390  0.00  0.00    +0.000 A 
ATOM     17  F   UNL     1       0.844 -52.272  21.457  0.00  0.00    +0.000 F 
ENDBRANCH   2   4
BRANCH   2   1
ATOM      1  C   UNL     1       4.552 -55.253  17.336  0.00  0.00    +0.000 C 
ATOM     10  C   UNL     1       3.961 -55.813  16.259  0.00  0.00    +0.000 C 
BRANCH  10  11
ATOM     11  C   UNL     1       4.253 -55.615  14.954  0.00  0.00    +0.000 A 
ATOM     12  C   UNL     1       3.256 -55.700  14.048  0.00  0.00    +0.000 A 
ATOM     13  C   UNL     1       3.467 -55.516  12.734  0.00  0.00    +0.000 A 
ATOM     14  C   UNL     1       4.699 -55.239  12.286  0.00  0.00    +0.000 A 
ATOM     15  C   UNL     1       5.706 -55.149  13.164  0.00  0.00    +0.000 A 
ATOM     16  C   UNL     1       5.482 -55.335  14.476  0.00  0.00    +0.000 A 
ENDBRANCH  10  11
ENDBRANCH   2   1
TORSDOF 3
ENDMDL
MODEL 9
REMARK VINA RESULT:      -8.1     20.620     23.014
REMARK  Name = Fragment
REMARK  3 active torsions:
REMARK  status: ('A' for Active; 'I' for Inactive)
REMARK    1  A    between atoms: C_1  and  C_2
REMARK    2  A    between atoms: C_2  and  C_4
REMARK    3  A    between atoms: C_10  and  C_11
REMARK                            x       y       z     vdW  Elec       q    Type
REMARK                         _______ _______ _______ _____ _____    ______ ____
ROOT
ATOM      2  C   UNL     1       4.997 -55.870  16.826  0.00  0.00    +0.000 C 
ATOM      3  O   UNL     1       6.032 -56.355  17.245  0.00  0.00    +0.000 OA
ENDROOT
BRANCH   2   4
ATOM      4  C   UNL     1       4.827 -55.675  15.475  0.00  0.00    +0.000 A 
ATOM      5  C   UNL     1       3.608 -55.872  14.921  0.00  0.00    +0.000 A 
ATOM      6  C   UNL     1       3.374 -55.699  13.610  0.00  0.00    +0.000 A 
ATOM      7  C   UNL     1       4.362 -55.319  12.789  0.00  0.00    +0.000 A 
ATOM      8  C   UNL     1       5.579 -55.117  13.311  0.00  0.00    +0.000 A 
ATOM      9  C   UNL     1       5.804 -55.292  14.624  0.00  0.00    +0.000 A 
ATOM     17  F   UNL     1       4.141 -55.146  11.495  0.00  0.00    +0.000 F 
ENDBRANCH   2   4
BRANCH   2   1
ATOM      1  C   UNL     1       4.021 -55.529  17.725  0.00  0.00    +0.000 C 
ATOM     10  C   UNL     1       4.057 -54.431  18.510  0.00  0.00    +0.000 C 
BRANCH  10  11
ATOM     11  C   UNL     1       3.138 -54.029  19.417  0.00  0.00    +0.000 A 
ATOM     12  C   UNL     1       2.386 -54.965  20.035  0.00  0.00    +0.000 A 
ATOM     13  C   UNL     1       1.454 -54.643  20.947  0.00  0.00    +0.000 A 
ATOM     14  C   UNL     1       1.246 -53.359  21.270  0.00  0.00    +0.000 A 
ATOM     15  C   UNL     1       1.979 -52.411  20.671  0.00  0.00    +0.000 A 
ATOM     16  C   UNL     1       2.909 -52.745  19.761  0.00  0.00    +0.000 A 
ENDBRANCH  10  11
ENDBRANCH   2   1
TORSDOF 3
ENDMDL
MODEL 10
REMARK VINA RESULT:      -8.1      5.991     10.060
REMARK  Name = Fragment
REMARK  3 active torsions:
REMARK  status: ('A' for Active; 'I' for Inactive)
REMARK    1  A    between atoms: C_1  and  C_2
REMARK    2  A    between atoms: C_2  and  C_4
REMARK    3  A    between atoms: C_10  and  C_11
REMARK                            x       y       z     vdW  Elec       q    Type
REMARK                         _______ _______ _______ _____ _____    ______ ____
ROOT
ATOM      2  C   UNL     1     -17.166 -41.257  22.316  0.00  0.00    +0.000 C 
ATOM      3  O   UNL     1     -16.392 -40.779  21.507  0.00  0.00    +0.000 OA
ENDROOT
BRANCH   2   4
ATOM      4  C   UNL     1     -18.475 -40.838  22.347  0.00  0.00    +0.000 A 
ATOM      5  C   UNL     1     -18.943 -40.038  21.361  0.00  0.00    +0.000 A 
ATOM      6  C   UNL     1     -20.210 -39.594  21.331  0.00  0.00    +0.000 A 
ATOM      7  C   UNL     1     -21.071 -39.934  22.299  0.00  0.00    +0.000 A 
ATOM      8  C   UNL     1     -20.635 -40.725  23.289  0.00  0.00    +0.000 A 
ATOM      9  C   UNL     1     -19.366 -41.165  23.310  0.00  0.00    +0.000 A 
ATOM     17  F   UNL     1     -22.322 -39.501  22.279  0.00  0.00    +0.000 F 
ENDBRANCH   2   4
BRANCH   2   1
ATOM      1  C   UNL     1     -16.701 -42.212  23.182  0.00  0.00    +0.000 C 
ATOM     10  C   UNL     1     -15.697 -42.019  24.064  0.00  0.00    +0.000 C 
BRANCH  10  11
ATOM     11  C   UNL     1     -15.184 -42.906  24.946  0.00  0.00    +0.000 A 
ATOM     12  C   UNL     1     -14.660 -44.058  24.474  0.00  0.00    +0.000 A 
ATOM     13  C   UNL     1     -14.132 -44.987  25.287  0.00  0.00    +0.000 A 
ATOM     14  C   UNL     1     -14.114 -44.787  26.612  0.00  0.00    +0.000 A 
ATOM     15  C   UNL     1     -14.627 -43.652  27.106  0.00  0.00    +0.000 A 
ATOM     16  C   UNL     1     -15.152 -42.730  26.282  0.00  0.00    +0.000 A 
ENDBRANCH  10  11
ENDBRANCH   2   1
TORSDOF 3
ENDMDL
