MODEL 1
REMARK VINA RESULT:      -9.9      0.000      0.000
REMARK  Name = Fragment
REMARK  5 active torsions:
REMARK  status: ('A' for Active; 'I' for Inactive)
REMARK    1  A    between atoms: C_1  and  C_2
REMARK    2  A    between atoms: C_2  and  C_4
REMARK    3  A    between atoms: C_10  and  C_11
REMARK    4  A    between atoms: C_14  and  O_17
REMARK    5  A    between atoms: O_17  and  C_18
REMARK                            x       y       z     vdW  Elec       q    Type
REMARK                         _______ _______ _______ _____ _____    ______ ____
ROOT
ATOM      1  C   UNL     1     -14.108 -43.681  26.348  0.00  0.00    +0.000 C 
ATOM     10  C   UNL     1     -13.884 -44.950  26.749  0.00  0.00    +0.000 C 
ENDROOT
BRANCH  10  11
ATOM     11  C   UNL     1     -13.150 -45.369  27.804  0.00  0.00    +0.000 A 
ATOM     12  C   UNL     1     -13.593 -45.116  29.052  0.00  0.00    +0.000 A 
ATOM     13  C   UNL     1     -12.909 -45.506  30.138  0.00  0.00    +0.000 A 
ATOM     14  C   UNL     1     -11.742 -46.172  30.063  0.00  0.00    +0.000 A 
ATOM     15  C   UNL     1     -11.303 -46.423  28.814  0.00  0.00    +0.000 A 
ATOM     16  C   UNL     1     -11.982 -46.035  27.721  0.00  0.00    +0.000 A 
BRANCH  14  17
ATOM     17  O   UNL     1     -11.106 -46.535  31.225  0.00  0.00    +0.000 OA
ATOM     18  C   UNL     1      -9.706 -46.392  31.304  0.00  0.00    +0.000 C 
ENDBRANCH  14  17
ENDBRANCH  10  11
BRANCH   1   2
ATOM      2  C   UNL     1     -14.868 -43.334  25.262  0.00  0.00    +0.000 C 
ATOM      3  O   UNL     1     -14.360 -43.387  24.157  0.00  0.00    +0.000 OA
BRANCH   2   4
ATOM      4  C   UNL     1     -16.177 -42.934  25.403  0.00  0.00    +0.000 A 
ATOM      5  C   UNL     1     -16.671 -42.701  26.640  0.00  0.00    +0.000 A 
ATOM      6  C   UNL     1     -17.937 -42.309  26.849  0.00  0.00    +0.000 A 
ATOM      7  C   UNL     1     -18.768 -42.133  25.815  0.00  0.00    +0.000 A 
ATOM      8  C   UNL     1     -18.308 -42.355  24.577  0.00  0.00    +0.000 A 
ATOM      9  C   UNL     1     -17.038 -42.748  24.379  0.00  0.00    +0.000 A 
ENDBRANCH   2   4
ENDBRANCH   1   2
TORSDOF 4
ENDMDL
MODEL 2
REMARK VINA RESULT:      -9.0      2.312      7.460
REMARK  Name = Fragment
REMARK  5 active torsions:
REMARK  status: ('A' for Active; 'I' for Inactive)
REMARK    1  A    between atoms: C_1  and  C_2
REMARK    2  A    between atoms: C_2  and  C_4
REMARK    3  A    between atoms: C_10  and  C_11
REMARK    4  A    between atoms: C_14  and  O_17
REMARK    5  A    between atoms: O_17  and  C_18
REMARK                            x       y       z     vdW  Elec       q    Type
REMARK                         _______ _______ _______ _____ _____    ______ ____
ROOT
ATOM      1  C   UNL     1     -15.179 -43.029  26.543  0.00  0.00    +0.000 C 
ATOM     10  C   UNL     1     -16.209 -42.826  25.695  0.00  0.00    +0.000 C 
ENDROOT
BRANCH  10  11
ATOM     11  C   UNL     1     -17.476 -42.468  26.000  0.00  0.00    +0.000 A 
ATOM     12  C   UNL     1     -17.851 -42.426  27.294  0.00  0.00    +0.000 A 
ATOM     13  C   UNL     1     -19.094 -42.078  27.661  0.00  0.00    +0.000 A 
ATOM     14  C   UNL     1     -20.049 -41.748  26.771  0.00  0.00    +0.000 A 
ATOM     15  C   UNL     1     -19.670 -41.791  25.479  0.00  0.00    +0.000 A 
ATOM     16  C   UNL     1     -18.427 -42.139  25.105  0.00  0.00    +0.000 A 
BRANCH  14  17
ATOM     17  O   UNL     1     -21.296 -41.403  27.231  0.00  0.00    +0.000 OA
ATOM     18  C   UNL     1     -22.111 -40.581  26.426  0.00  0.00    +0.000 C 
ENDBRANCH  14  17
ENDBRANCH  10  11
BRANCH   1   2
ATOM      2  C   UNL     1     -13.916 -43.393  26.156  0.00  0.00    +0.000 C 
ATOM      3  O   UNL     1     -13.478 -42.948  25.110  0.00  0.00    +0.000 OA
BRANCH   2   4
ATOM      4  C   UNL     1     -13.149 -44.242  26.920  0.00  0.00    +0.000 A 
ATOM      5  C   UNL     1     -12.146 -43.735  27.673  0.00  0.00    +0.000 A 
ATOM      6  C   UNL     1     -11.360 -44.504  28.441  0.00  0.00    +0.000 A 
ATOM      7  C   UNL     1     -11.550 -45.829  28.486  0.00  0.00    +0.000 A 
ATOM      8  C   UNL     1     -12.535 -46.362  27.751  0.00  0.00    +0.000 A 
ATOM      9  C   UNL     1     -13.316 -45.580  26.986  0.00  0.00    +0.000 A 
ENDBRANCH   2   4
ENDBRANCH   1   2
TORSDOF 4
ENDMDL
MODEL 3
REMARK VINA RESULT:      -8.9      1.524      2.153
REMARK  Name = Fragment
REMARK  5 active torsions:
REMARK  status: ('A' for Active; 'I' for Inactive)
REMARK    1  A    between atoms: C_1  and  C_2
REMARK    2  A    between atoms: C_2  and  C_4
REMARK    3  A    between atoms: C_10  and  C_11
REMARK    4  A    between atoms: C_14  and  O_17
REMARK    5  A    between atoms: O_17  and  C_18
REMARK                            x       y       z     vdW  Elec       q    Type
REMARK                         _______ _______ _______ _____ _____    ______ ____
ROOT
ATOM      1  C   UNL     1     -15.001 -43.600  26.258  0.00  0.00    +0.000 C 
ATOM     10  C   UNL     1     -13.732 -43.138  26.295  0.00  0.00    +0.000 C 
ENDROOT
BRANCH  10  11
ATOM     11  C   UNL     1     -12.725 -43.547  27.098  0.00  0.00    +0.000 A 
ATOM     12  C   UNL     1     -12.749 -44.801  27.592  0.00  0.00    +0.000 A 
ATOM     13  C   UNL     1     -11.778 -45.265  28.394  0.00  0.00    +0.000 A 
ATOM     14  C   UNL     1     -10.719 -44.519  28.760  0.00  0.00    +0.000 A 
ATOM     15  C   UNL     1     -10.699 -43.267  28.264  0.00  0.00    +0.000 A 
ATOM     16  C   UNL     1     -11.668 -42.795  27.461  0.00  0.00    +0.000 A 
BRANCH  14  17
ATOM     17  O   UNL     1      -9.770 -45.071  29.585  0.00  0.00    +0.000 OA
ATOM     18  C   UNL     1     -10.046 -46.308  30.202  0.00  0.00    +0.000 C 
ENDBRANCH  14  17
ENDBRANCH  10  11
BRANCH   1   2
ATOM      2  C   UNL     1     -15.971 -43.132  25.411  0.00  0.00    +0.000 C 
ATOM      3  O   UNL     1     -15.749 -43.137  24.214  0.00  0.00    +0.000 OA
BRANCH   2   4
ATOM      4  C   UNL     1     -17.173 -42.663  25.888  0.00  0.00    +0.000 A 
ATOM      5  C   UNL     1     -18.131 -42.281  25.014  0.00  0.00    +0.000 A 
ATOM      6  C   UNL     1     -19.326 -41.815  25.411  0.00  0.00    +0.000 A 
ATOM      7  C   UNL     1     -19.610 -41.712  26.715  0.00  0.00    +0.000 A 
ATOM      8  C   UNL     1     -18.681 -42.083  27.606  0.00  0.00    +0.000 A 
ATOM      9  C   UNL     1     -17.488 -42.548  27.196  0.00  0.00    +0.000 A 
ENDBRANCH   2   4
ENDBRANCH   1   2
TORSDOF 4
ENDMDL
MODEL 4
REMARK VINA RESULT:      -8.8      2.521      7.903
REMARK  Name = Fragment
REMARK  5 active torsions:
REMARK  status: ('A' for Active; 'I' for Inactive)
REMARK    1  A    between atoms: C_1  and  C_2
REMARK    2  A    between atoms: C_2  and  C_4
REMARK    3  A    between atoms: C_10  and  C_11
REMARK    4  A    between atoms: C_14  and  O_17
REMARK    5  A    between atoms: O_17  and  C_18
REMARK                            x       y       z     vdW  Elec       q    Type
REMARK                         _______ _______ _______ _____ _____    ______ ____
ROOT
ATOM      1  C   UNL     1     -15.949 -42.798  25.873  0.00  0.00    +0.000 C 
ATOM     10  C   UNL     1     -17.087 -42.728  25.149  0.00  0.00    +0.000 C 
ENDROOT
BRANCH  10  11
ATOM     11  C   UNL     1     -18.281 -42.222  25.529  0.00  0.00    +0.000 A 
ATOM     12  C   UNL     1     -19.139 -41.787  24.584  0.00  0.00    +0.000 A 
ATOM     13  C   UNL     1     -20.339 -41.276  24.898  0.00  0.00    +0.000 A 
ATOM     14  C   UNL     1     -20.770 -41.160  26.168  0.00  0.00    +0.000 A 
ATOM     15  C   UNL     1     -19.910 -41.596  27.109  0.00  0.00    +0.000 A 
ATOM     16  C   UNL     1     -18.707 -42.109  26.802  0.00  0.00    +0.000 A 
BRANCH  14  17
ATOM     17  O   UNL     1     -22.013 -40.624  26.403  0.00  0.00    +0.000 OA
ATOM     18  C   UNL     1     -22.844 -40.336  25.302  0.00  0.00    +0.000 C 
ENDBRANCH  14  17
ENDBRANCH  10  11
BRANCH   1   2
ATOM      2  C   UNL     1     -14.772 -43.328  25.416  0.00  0.00    +0.000 C 
ATOM      3  O   UNL     1     -14.556 -43.316  24.218  0.00  0.00    +0.000 OA
BRANCH   2   4
ATOM      4  C   UNL     1     -13.845 -43.864  26.280  0.00  0.00    +0.000 A 
ATOM      5  C   UNL     1     -13.840 -45.198  26.505  0.00  0.00    +0.000 A 
ATOM      6  C   UNL     1     -12.964 -45.786  27.334  0.00  0.00    +0.000 A 
ATOM      7  C   UNL     1     -12.048 -45.053  27.978  0.00  0.00    +0.000 A 
ATOM      8  C   UNL     1     -12.027 -43.729  27.776  0.00  0.00    +0.000 A 
ATOM      9  C   UNL     1     -12.909 -43.151  26.943  0.00  0.00    +0.000 A 
ENDBRANCH   2   4
ENDBRANCH   1   2
TORSDOF 4
ENDMDL
MODEL 5
REMARK VINA RESULT:      -8.1      2.675      4.534
REMARK  Name = Fragment
REMARK  5 active torsions:
REMARK  status: ('A' for Active; 'I' for Inactive)
REMARK    1  A    between atoms: C_1  and  C_2
REMARK    2  A    between atoms: C_2  and  C_4
REMARK    3  A    between atoms: C_10  and  C_11
REMARK    4  A    between atoms: C_14  and  O_17
REMARK    5  A    between atoms: O_17  and  C_18
REMARK                            x       y       z     vdW  Elec       q    Type
REMARK                         _______ _______ _______ _____ _____    ______ ____
ROOT
ATOM      1  C   UNL     1     -16.709 -42.174  23.103  0.00  0.00    +0.000 C 
ATOM     10  C   UNL     1     -15.699 -41.982  23.978  0.00  0.00    +0.000 C 
ENDROOT
BRANCH  10  11
ATOM     11  C   UNL     1     -15.122 -42.893  24.792  0.00  0.00    +0.000 A 
ATOM     12  C   UNL     1     -14.901 -42.573  26.083  0.00  0.00    +0.000 A 
ATOM     13  C   UNL     1     -14.333 -43.434  26.940  0.00  0.00    +0.000 A 
ATOM     14  C   UNL     1     -13.945 -44.671  26.577  0.00  0.00    +0.000 A 
ATOM     15  C   UNL     1     -14.167 -44.988  25.287  0.00  0.00    +0.000 A 
ATOM     16  C   UNL     1     -14.736 -44.130  24.423  0.00  0.00    +0.000 A 
BRANCH  14  17
ATOM     17  O   UNL     1     -13.371 -45.491  27.517  0.00  0.00    +0.000 OA
ATOM     18  C   UNL     1     -12.193 -45.061  28.161  0.00  0.00    +0.000 C 
ENDBRANCH  14  17
ENDBRANCH  10  11
BRANCH   1   2
ATOM      2  C   UNL     1     -17.242 -41.194  22.308  0.00  0.00    +0.000 C 
ATOM      3  O   UNL     1     -16.532 -40.680  21.464  0.00  0.00    +0.000 OA
BRANCH   2   4
ATOM      4  C   UNL     1     -18.550 -40.791  22.449  0.00  0.00    +0.000 A 
ATOM      5  C   UNL     1     -19.080 -39.929  21.552  0.00  0.00    +0.000 A 
ATOM      6  C   UNL     1     -20.348 -39.495  21.629  0.00  0.00    +0.000 A 
ATOM      7  C   UNL     1     -21.143 -39.912  22.622  0.00  0.00    +0.000 A 
ATOM      8  C   UNL     1     -20.647 -40.765  23.527  0.00  0.00    +0.000 A 
ATOM      9  C   UNL     1     -19.376 -41.193  23.439  0.00  0.00    +0.000 A 
ENDBRANCH   2   4
ENDBRANCH   1   2
TORSDOF 4
ENDMDL
MODEL 6
REMARK VINA RESULT:      -8.1      4.572     10.165
REMARK  Name = Fragment
REMARK  5 active torsions:
REMARK  status: ('A' for Active; 'I' for Inactive)
REMARK    1  A    between atoms: C_1  and  C_2
REMARK    2  A    between atoms: C_2  and  C_4
REMARK    3  A    between atoms: C_10  and  C_11
REMARK    4  A    between atoms: C_14  and  O_17
REMARK    5  A    between atoms: O_17  and  C_18
REMARK                            x       y       z     vdW  Elec       q    Type
REMARK                         _______ _______ _______ _____ _____    ______ ____
ROOT
ATOM      1  C   UNL     1     -18.505 -42.068  22.994  0.00  0.00    +0.000 C 
ATOM     10  C   UNL     1     -18.369 -40.862  22.402  0.00  0.00    +0.000 C 
ENDROOT
BRANCH  10  11
ATOM     11  C   UNL     1     -19.295 -40.175  21.697  0.00  0.00    +0.000 A 
ATOM     12  C   UNL     1     -20.326 -39.604  22.351  0.00  0.00    +0.000 A 
ATOM     13  C   UNL     1     -21.276 -38.910  21.708  0.00  0.00    +0.000 A 
ATOM     14  C   UNL     1     -21.271 -38.735  20.373  0.00  0.00    +0.000 A 
ATOM     15  C   UNL     1     -20.240 -39.307  19.723  0.00  0.00    +0.000 A 
ATOM     16  C   UNL     1     -19.284 -40.004  20.361  0.00  0.00    +0.000 A 
BRANCH  14  17
ATOM     17  O   UNL     1     -22.283 -38.011  19.793  0.00  0.00    +0.000 OA
ATOM     18  C   UNL     1     -22.221 -37.748  18.409  0.00  0.00    +0.000 C 
ENDBRANCH  14  17
ENDBRANCH  10  11
BRANCH   1   2
ATOM      2  C   UNL     1     -17.513 -42.702  23.695  0.00  0.00    +0.000 C 
ATOM      3  O   UNL     1     -16.690 -43.352  23.078  0.00  0.00    +0.000 OA
BRANCH   2   4
ATOM      4  C   UNL     1     -17.439 -42.616  25.066  0.00  0.00    +0.000 A 
ATOM      5  C   UNL     1     -16.247 -42.795  25.679  0.00  0.00    +0.000 A 
ATOM      6  C   UNL     1     -16.102 -42.724  27.012  0.00  0.00    +0.000 A 
ATOM      7  C   UNL     1     -17.160 -42.469  27.791  0.00  0.00    +0.000 A 
ATOM      8  C   UNL     1     -18.355 -42.287  27.214  0.00  0.00    +0.000 A 
ATOM      9  C   UNL     1     -18.487 -42.360  25.879  0.00  0.00    +0.000 A 
ENDBRANCH   2   4
ENDBRANCH   1   2
TORSDOF 4
ENDMDL
MODEL 7
REMARK VINA RESULT:      -8.0      2.356      4.308
REMARK  Name = Fragment
REMARK  5 active torsions:
REMARK  status: ('A' for Active; 'I' for Inactive)
REMARK    1  A    between atoms: C_1  and  C_2
REMARK    2  A    between atoms: C_2  and  C_4
REMARK    3  A    between atoms: C_10  and  C_11
REMARK    4  A    between atoms: C_14  and  O_17
REMARK    5  A    between atoms: O_17  and  C_18
REMARK                            x       y       z     vdW  Elec       q    Type
REMARK                         _______ _______ _______ _____ _____    ______ ____
ROOT
ATOM      1  C   UNL     1     -17.876 -42.755  24.759  0.00  0.00    +0.000 C 
ATOM     10  C   UNL     1     -16.631 -42.414  25.154  0.00  0.00    +0.000 C 
ENDROOT
BRANCH  10  11
ATOM     11  C   UNL     1     -15.708 -43.198  25.753  0.00  0.00    +0.000 A 
ATOM     12  C   UNL     1     -14.917 -43.979  24.991  0.00  0.00    +0.000 A 
ATOM     13  C   UNL     1     -13.982 -44.779  25.527  0.00  0.00    +0.000 A 
ATOM     14  C   UNL     1     -13.768 -44.859  26.853  0.00  0.00    +0.000 A 
ATOM     15  C   UNL     1     -14.559 -44.076  27.612  0.00  0.00    +0.000 A 
ATOM     16  C   UNL     1     -15.498 -43.273  27.082  0.00  0.00    +0.000 A 
BRANCH  14  17
ATOM     17  O   UNL     1     -12.790 -45.703  27.320  0.00  0.00    +0.000 OA
ATOM     18  C   UNL     1     -12.885 -46.185  28.641  0.00  0.00    +0.000 C 
ENDBRANCH  14  17
ENDBRANCH  10  11
BRANCH   1   2
ATOM      2  C   UNL     1     -18.759 -41.899  24.155  0.00  0.00    +0.000 C 
ATOM      3  O   UNL     1     -18.533 -41.544  23.012  0.00  0.00    +0.000 OA
BRANCH   2   4
ATOM      4  C   UNL     1     -19.879 -41.444  24.812  0.00  0.00    +0.000 A 
ATOM      5  C   UNL     1     -20.899 -40.915  24.098  0.00  0.00    +0.000 A 
ATOM      6  C   UNL     1     -22.019 -40.453  24.674  0.00  0.00    +0.000 A 
ATOM      7  C   UNL     1     -22.163 -40.502  26.004  0.00  0.00    +0.000 A 
ATOM      8  C   UNL     1     -21.170 -41.020  26.738  0.00  0.00    +0.000 A 
ATOM      9  C   UNL     1     -20.053 -41.480  26.150  0.00  0.00    +0.000 A 
ENDBRANCH   2   4
ENDBRANCH   1   2
TORSDOF 4
ENDMDL
MODEL 8
REMARK VINA RESULT:      -7.8     21.826     24.494
REMARK  Name = Fragment
REMARK  5 active torsions:
REMARK  status: ('A' for Active; 'I' for Inactive)
REMARK    1  A    between atoms: C_1  and  C_2
REMARK    2  A    between atoms: C_2  and  C_4
REMARK    3  A    between atoms: C_10  and  C_11
REMARK    4  A    between atoms: C_14  and  O_17
REMARK    5  A    between atoms: O_17  and  C_18
REMARK                            x       y       z     vdW  Elec       q    Type
REMARK                         _______ _______ _______ _____ _____    ______ ____
ROOT
ATOM      1  C   UNL     1       4.634 -55.442  17.752  0.00  0.00    +0.000 C 
ATOM     10  C   UNL     1       3.863 -55.616  16.657  0.00  0.00    +0.000 C 
ENDROOT
BRANCH  10  11
ATOM     11  C   UNL     1       4.258 -55.684  15.367  0.00  0.00    +0.000 A 
ATOM     12  C   UNL     1       5.572 -55.592  15.078  0.00  0.00    +0.000 A 
ATOM     13  C   UNL     1       6.026 -55.653  13.817  0.00  0.00    +0.000 A 
ATOM     14  C   UNL     1       5.211 -55.809  12.757  0.00  0.00    +0.000 A 
ATOM     15  C   UNL     1       3.899 -55.901  13.050  0.00  0.00    +0.000 A 
ATOM     16  C   UNL     1       3.437 -55.841  14.310  0.00  0.00    +0.000 A 
BRANCH  14  17
ATOM     17  O   UNL     1       5.758 -55.862  11.499  0.00  0.00    +0.000 OA
ATOM     18  C   UNL     1       7.136 -55.604  11.349  0.00  0.00    +0.000 C 
ENDBRANCH  14  17
ENDBRANCH  10  11
BRANCH   1   2
ATOM      2  C   UNL     1       4.157 -55.382  19.034  0.00  0.00    +0.000 C 
ATOM      3  O   UNL     1       4.332 -56.341  19.764  0.00  0.00    +0.000 OA
BRANCH   2   4
ATOM      4  C   UNL     1       3.493 -54.271  19.501  0.00  0.00    +0.000 A 
ATOM      5  C   UNL     1       4.000 -53.042  19.252  0.00  0.00    +0.000 A 
ATOM      6  C   UNL     1       3.405 -51.916  19.677  0.00  0.00    +0.000 A 
ATOM      7  C   UNL     1       2.265 -51.980  20.376  0.00  0.00    +0.000 A 
ATOM      8  C   UNL     1       1.738 -53.182  20.638  0.00  0.00    +0.000 A 
ATOM      9  C   UNL     1       2.343 -54.303  20.207  0.00  0.00    +0.000 A 
ENDBRANCH   2   4
ENDBRANCH   1   2
TORSDOF 4
ENDMDL
MODEL 9
REMARK VINA RESULT:      -7.7      3.100      5.481
REMARK  Name = Fragment
REMARK  5 active torsions:
REMARK  status: ('A' for Active; 'I' for Inactive)
REMARK    1  A    between atoms: C_1  and  C_2
REMARK    2  A    between atoms: C_2  and  C_4
REMARK    3  A    between atoms: C_10  and  C_11
REMARK    4  A    between atoms: C_14  and  O_17
REMARK    5  A    between atoms: O_17  and  C_18
REMARK                            x       y       z     vdW  Elec       q    Type
REMARK                         _______ _______ _______ _____ _____    ______ ____
ROOT
ATOM      1  C   UNL     1     -18.918 -42.226  24.660  0.00  0.00    +0.000 C 
ATOM     10  C   UNL     1     -17.774 -42.774  24.197  0.00  0.00    +0.000 C 
ENDROOT
BRANCH  10  11
ATOM     11  C   UNL     1     -16.577 -42.845  24.821  0.00  0.00    +0.000 A 
ATOM     12  C   UNL     1     -16.531 -42.731  26.164  0.00  0.00    +0.000 A 
ATOM     13  C   UNL     1     -15.374 -42.793  26.840  0.00  0.00    +0.000 A 
ATOM     14  C   UNL     1     -14.185 -42.970  26.234  0.00  0.00    +0.000 A 
ATOM     15  C   UNL     1     -14.236 -43.083  24.893  0.00  0.00    +0.000 A 
ATOM     16  C   UNL     1     -15.391 -43.023  24.208  0.00  0.00    +0.000 A 
BRANCH  14  17
ATOM     17  O   UNL     1     -13.048 -43.022  27.002  0.00  0.00    +0.000 OA
ATOM     18  C   UNL     1     -12.732 -44.225  27.664  0.00  0.00    +0.000 C 
ENDBRANCH  14  17
ENDBRANCH  10  11
BRANCH   1   2
ATOM      2  C   UNL     1     -20.097 -42.194  23.964  0.00  0.00    +0.000 C 
ATOM      3  O   UNL     1     -20.834 -43.161  24.023  0.00  0.00    +0.000 OA
BRANCH   2   4
ATOM      4  C   UNL     1     -20.454 -41.099  23.210  0.00  0.00    +0.000 A 
ATOM      5  C   UNL     1     -21.702 -40.590  23.327  0.00  0.00    +0.000 A 
ATOM      6  C   UNL     1     -22.116 -39.525  22.623  0.00  0.00    +0.000 A 
ATOM      7  C   UNL     1     -21.286 -38.921  21.764  0.00  0.00    +0.000 A 
ATOM      8  C   UNL     1     -20.043 -39.401  21.626  0.00  0.00    +0.000 A 
ATOM      9  C   UNL     1     -19.640 -40.469  22.337  0.00  0.00    +0.000 A 
ENDBRANCH   2   4
ENDBRANCH   1   2
TORSDOF 4
ENDMDL
MODEL 10
REMARK VINA RESULT:      -7.6     21.621     24.340
REMARK  Name = Fragment
REMARK  5 active torsions:
REMARK  status: ('A' for Active; 'I' for Inactive)
REMARK    1  A    between atoms: C_1  and  C_2
REMARK    2  A    between atoms: C_2  and  C_4
REMARK    3  A    between atoms: C_10  and  C_11
REMARK    4  A    between atoms: C_14  and  O_17
REMARK    5  A    between atoms: O_17  and  C_18
REMARK                            x       y       z     vdW  Elec       q    Type
REMARK                         _______ _______ _______ _____ _____    ______ ____
ROOT
ATOM      1  C   UNL     1       3.786 -55.962  17.572  0.00  0.00    +0.000 C 
ATOM     10  C   UNL     1       4.475 -55.407  16.552  0.00  0.00    +0.000 C 
ENDROOT
BRANCH  10  11
ATOM     11  C   UNL     1       4.386 -55.701  15.236  0.00  0.00    +0.000 A 
ATOM     12  C   UNL     1       3.188 -56.039  14.719  0.00  0.00    +0.000 A 
ATOM     13  C   UNL     1       3.036 -56.341  13.421  0.00  0.00    +0.000 A 
ATOM     14  C   UNL     1       4.060 -56.329  12.546  0.00  0.00    +0.000 A 
ATOM     15  C   UNL     1       5.255 -55.991  13.067  0.00  0.00    +0.000 A 
ATOM     16  C   UNL     1       5.415 -55.687  14.366  0.00  0.00    +0.000 A 
BRANCH  14  17
ATOM     17  O   UNL     1       3.817 -56.652  11.234  0.00  0.00    +0.000 OA
ATOM     18  C   UNL     1       2.491 -56.609  10.760  0.00  0.00    +0.000 C 
ENDBRANCH  14  17
ENDBRANCH  10  11
BRANCH   1   2
ATOM      2  C   UNL     1       3.932 -55.608  18.888  0.00  0.00    +0.000 C 
ATOM      3  O   UNL     1       4.491 -56.386  19.639  0.00  0.00    +0.000 OA
BRANCH   2   4
ATOM      4  C   UNL     1       3.463 -54.405  19.362  0.00  0.00    +0.000 A 
ATOM      5  C   UNL     1       2.319 -54.375  20.082  0.00  0.00    +0.000 A 
ATOM      6  C   UNL     1       1.805 -53.237  20.574  0.00  0.00    +0.000 A 
ATOM      7  C   UNL     1       2.426 -52.070  20.362  0.00  0.00    +0.000 A 
ATOM      8  C   UNL     1       3.562 -52.067  19.653  0.00  0.00    +0.000 A 
ATOM      9  C   UNL     1       4.067 -53.213  19.164  0.00  0.00    +0.000 A 
ENDBRANCH   2   4
ENDBRANCH   1   2
TORSDOF 4
ENDMDL
