MODEL 1
REMARK VINA RESULT:      -9.9      0.000      0.000
REMARK  Name = Fragment
REMARK  3 active torsions:
REMARK  status: ('A' for Active; 'I' for Inactive)
REMARK    1  A    between atoms: C_1  and  C_2
REMARK    2  A    between atoms: C_2  and  C_4
REMARK    3  A    between atoms: C_10  and  C_11
REMARK                            x       y       z     vdW  Elec       q    Type
REMARK                         _______ _______ _______ _____ _____    ______ ____
ROOT
ATOM      1  C   UNL     1     -13.934 -43.727  26.395  0.00  0.00    +0.000 C 
ATOM     10  C   UNL     1     -13.719 -44.999  26.795  0.00  0.00    +0.000 C 
ENDROOT
BRANCH  10  11
ATOM     11  C   UNL     1     -12.978 -45.426  27.844  0.00  0.00    +0.000 A 
ATOM     12  C   UNL     1     -13.427 -45.189  29.094  0.00  0.00    +0.000 A 
ATOM     13  C   UNL     1     -12.749 -45.582  30.183  0.00  0.00    +0.000 A 
ATOM     14  C   UNL     1     -11.583 -46.233  30.056  0.00  0.00    +0.000 A 
ATOM     15  C   UNL     1     -11.118 -46.479  28.823  0.00  0.00    +0.000 A 
ATOM     16  C   UNL     1     -11.804 -46.082  27.740  0.00  0.00    +0.000 A 
ATOM     17  F   UNL     1     -10.907 -46.624  31.123  0.00  0.00    +0.000 F 
ENDBRANCH  10  11
BRANCH   1   2
ATOM      2  C   UNL     1     -14.701 -43.375  25.317  0.00  0.00    +0.000 C 
ATOM      3  O   UNL     1     -14.202 -43.423  24.208  0.00  0.00    +0.000 OA
BRANCH   2   4
ATOM      4  C   UNL     1     -16.008 -42.973  25.469  0.00  0.00    +0.000 A 
ATOM      5  C   UNL     1     -16.499 -42.760  26.712  0.00  0.00    +0.000 A 
ATOM      6  C   UNL     1     -17.764 -42.368  26.930  0.00  0.00    +0.000 A 
ATOM      7  C   UNL     1     -18.596 -42.172  25.900  0.00  0.00    +0.000 A 
ATOM      8  C   UNL     1     -18.140 -42.374  24.658  0.00  0.00    +0.000 A 
ATOM      9  C   UNL     1     -16.872 -42.767  24.451  0.00  0.00    +0.000 A 
ENDBRANCH   2   4
ENDBRANCH   1   2
TORSDOF 3
ENDMDL
MODEL 2
REMARK VINA RESULT:      -9.8      3.217      7.141
REMARK  Name = Fragment
REMARK  3 active torsions:
REMARK  status: ('A' for Active; 'I' for Inactive)
REMARK    1  A    between atoms: C_1  and  C_2
REMARK    2  A    between atoms: C_2  and  C_4
REMARK    3  A    between atoms: C_10  and  C_11
REMARK                            x       y       z     vdW  Elec       q    Type
REMARK                         _______ _______ _______ _____ _____    ______ ____
ROOT
ATOM      1  C   UNL     1     -13.421 -45.194  28.037  0.00  0.00    +0.000 C 
ATOM     10  C   UNL     1     -14.449 -44.374  27.730  0.00  0.00    +0.000 C 
ENDROOT
BRANCH  10  11
ATOM     11  C   UNL     1     -14.836 -43.949  26.506  0.00  0.00    +0.000 A 
ATOM     12  C   UNL     1     -15.777 -42.984  26.422  0.00  0.00    +0.000 A 
ATOM     13  C   UNL     1     -16.212 -42.511  25.244  0.00  0.00    +0.000 A 
ATOM     14  C   UNL     1     -15.713 -42.993  24.097  0.00  0.00    +0.000 A 
ATOM     15  C   UNL     1     -14.778 -43.951  24.156  0.00  0.00    +0.000 A 
ATOM     16  C   UNL     1     -14.349 -44.418  25.339  0.00  0.00    +0.000 A 
ATOM     17  F   UNL     1     -16.136 -42.533  22.931  0.00  0.00    +0.000 F 
ENDBRANCH  10  11
BRANCH   1   2
ATOM      2  C   UNL     1     -13.092 -45.580  29.309  0.00  0.00    +0.000 C 
ATOM      3  O   UNL     1     -13.968 -45.603  30.154  0.00  0.00    +0.000 OA
BRANCH   2   4
ATOM      4  C   UNL     1     -11.805 -45.935  29.640  0.00  0.00    +0.000 A 
ATOM      5  C   UNL     1     -11.443 -45.985  30.943  0.00  0.00    +0.000 A 
ATOM      6  C   UNL     1     -10.204 -46.324  31.334  0.00  0.00    +0.000 A 
ATOM      7  C   UNL     1      -9.270 -46.630  30.426  0.00  0.00    +0.000 A 
ATOM      8  C   UNL     1      -9.598 -46.590  29.128  0.00  0.00    +0.000 A 
ATOM      9  C   UNL     1     -10.841 -46.250  28.747  0.00  0.00    +0.000 A 
ENDBRANCH   2   4
ENDBRANCH   1   2
TORSDOF 3
ENDMDL
MODEL 3
REMARK VINA RESULT:      -9.7      1.668      2.326
REMARK  Name = Fragment
REMARK  3 active torsions:
REMARK  status: ('A' for Active; 'I' for Inactive)
REMARK    1  A    between atoms: C_1  and  C_2
REMARK    2  A    between atoms: C_2  and  C_4
REMARK    3  A    between atoms: C_10  and  C_11
REMARK                            x       y       z     vdW  Elec       q    Type
REMARK                         _______ _______ _______ _____ _____    ______ ____
ROOT
ATOM      1  C   UNL     1     -14.663 -43.520  26.819  0.00  0.00    +0.000 C 
ATOM     10  C   UNL     1     -14.304 -44.375  27.801  0.00  0.00    +0.000 C 
ENDROOT
BRANCH  10  11
ATOM     11  C   UNL     1     -13.134 -45.041  27.936  0.00  0.00    +0.000 A 
ATOM     12  C   UNL     1     -12.944 -46.170  27.220  0.00  0.00    +0.000 A 
ATOM     13  C   UNL     1     -11.811 -46.885  27.301  0.00  0.00    +0.000 A 
ATOM     14  C   UNL     1     -10.818 -46.489  28.110  0.00  0.00    +0.000 A 
ATOM     15  C   UNL     1     -10.984 -45.370  28.829  0.00  0.00    +0.000 A 
ATOM     16  C   UNL     1     -12.121 -44.662  28.742  0.00  0.00    +0.000 A 
ATOM     17  F   UNL     1      -9.698 -47.186  28.196  0.00  0.00    +0.000 F 
ENDBRANCH  10  11
BRANCH   1   2
ATOM      2  C   UNL     1     -15.873 -42.883  26.753  0.00  0.00    +0.000 C 
ATOM      3  O   UNL     1     -16.338 -42.413  27.775  0.00  0.00    +0.000 OA
BRANCH   2   4
ATOM      4  C   UNL     1     -16.559 -42.769  25.566  0.00  0.00    +0.000 A 
ATOM      5  C   UNL     1     -15.908 -42.978  24.398  0.00  0.00    +0.000 A 
ATOM      6  C   UNL     1     -16.517 -42.883  23.206  0.00  0.00    +0.000 A 
ATOM      7  C   UNL     1     -17.817 -42.572  23.136  0.00  0.00    +0.000 A 
ATOM      8  C   UNL     1     -18.489 -42.359  24.275  0.00  0.00    +0.000 A 
ATOM      9  C   UNL     1     -17.870 -42.457  25.462  0.00  0.00    +0.000 A 
ENDBRANCH   2   4
ENDBRANCH   1   2
TORSDOF 3
ENDMDL
MODEL 4
REMARK VINA RESULT:      -9.6      1.313      2.102
REMARK  Name = Fragment
REMARK  3 active torsions:
REMARK  status: ('A' for Active; 'I' for Inactive)
REMARK    1  A    between atoms: C_1  and  C_2
REMARK    2  A    between atoms: C_2  and  C_4
REMARK    3  A    between atoms: C_10  and  C_11
REMARK                            x       y       z     vdW  Elec       q    Type
REMARK                         _______ _______ _______ _____ _____    ______ ____
ROOT
ATOM      1  C   UNL     1     -15.196 -43.663  25.948  0.00  0.00    +0.000 C 
ATOM     10  C   UNL     1     -13.994 -43.354  26.482  0.00  0.00    +0.000 C 
ENDROOT
BRANCH  10  11
ATOM     11  C   UNL     1     -13.122 -44.182  27.102  0.00  0.00    +0.000 A 
ATOM     12  C   UNL     1     -13.300 -45.516  26.984  0.00  0.00    +0.000 A 
ATOM     13  C   UNL     1     -12.477 -46.399  27.569  0.00  0.00    +0.000 A 
ATOM     14  C   UNL     1     -11.438 -45.974  28.301  0.00  0.00    +0.000 A 
ATOM     15  C   UNL     1     -11.243 -44.655  28.432  0.00  0.00    +0.000 A 
ATOM     16  C   UNL     1     -12.071 -43.778  27.843  0.00  0.00    +0.000 A 
ATOM     17  F   UNL     1     -10.622 -46.838  28.882  0.00  0.00    +0.000 F 
ENDBRANCH  10  11
BRANCH   1   2
ATOM      2  C   UNL     1     -16.024 -42.762  25.334  0.00  0.00    +0.000 C 
ATOM      3  O   UNL     1     -15.644 -42.230  24.307  0.00  0.00    +0.000 OA
BRANCH   2   4
ATOM      4  C   UNL     1     -17.260 -42.455  25.853  0.00  0.00    +0.000 A 
ATOM      5  C   UNL     1     -18.261 -42.094  25.018  0.00  0.00    +0.000 A 
ATOM      6  C   UNL     1     -19.490 -41.782  25.459  0.00  0.00    +0.000 A 
ATOM      7  C   UNL     1     -19.767 -41.820  26.769  0.00  0.00    +0.000 A 
ATOM      8  C   UNL     1     -18.796 -42.175  27.620  0.00  0.00    +0.000 A 
ATOM      9  C   UNL     1     -17.570 -42.485  27.168  0.00  0.00    +0.000 A 
ENDBRANCH   2   4
ENDBRANCH   1   2
TORSDOF 3
ENDMDL
MODEL 5
REMARK VINA RESULT:      -9.2      3.269      6.967
REMARK  Name = Fragment
REMARK  3 active torsions:
REMARK  status: ('A' for Active; 'I' for Inactive)
REMARK    1  A    between atoms: C_1  and  C_2
REMARK    2  A    between atoms: C_2  and  C_4
REMARK    3  A    between atoms: C_10  and  C_11
REMARK                            x       y       z     vdW  Elec       q    Type
REMARK                         _______ _______ _______ _____ _____    ______ ____
ROOT
ATOM      1  C   UNL     1     -15.304 -42.924  26.419  0.00  0.00    +0.000 C 
ATOM     10  C   UNL     1     -16.406 -42.877  25.638  0.00  0.00    +0.000 C 
ENDROOT
BRANCH  10  11
ATOM     11  C   UNL     1     -17.643 -42.444  25.972  0.00  0.00    +0.000 A 
ATOM     12  C   UNL     1     -18.481 -42.054  24.988  0.00  0.00    +0.000 A 
ATOM     13  C   UNL     1     -19.723 -41.613  25.241  0.00  0.00    +0.000 A 
ATOM     14  C   UNL     1     -20.173 -41.547  26.502  0.00  0.00    +0.000 A 
ATOM     15  C   UNL     1     -19.359 -41.929  27.495  0.00  0.00    +0.000 A 
ATOM     16  C   UNL     1     -18.118 -42.369  27.232  0.00  0.00    +0.000 A 
ATOM     17  F   UNL     1     -21.396 -41.113  26.760  0.00  0.00    +0.000 F 
ENDBRANCH  10  11
BRANCH   1   2
ATOM      2  C   UNL     1     -14.081 -43.378  26.004  0.00  0.00    +0.000 C 
ATOM      3  O   UNL     1     -13.686 -43.054  24.899  0.00  0.00    +0.000 OA
BRANCH   2   4
ATOM      4  C   UNL     1     -13.306 -44.183  26.806  0.00  0.00    +0.000 A 
ATOM      5  C   UNL     1     -12.318 -43.629  27.547  0.00  0.00    +0.000 A 
ATOM      6  C   UNL     1     -11.525 -44.357  28.350  0.00  0.00    +0.000 A 
ATOM      7  C   UNL     1     -11.694 -45.682  28.443  0.00  0.00    +0.000 A 
ATOM      8  C   UNL     1     -12.663 -46.259  27.722  0.00  0.00    +0.000 A 
ATOM      9  C   UNL     1     -13.451 -45.521  26.921  0.00  0.00    +0.000 A 
ENDBRANCH   2   4
ENDBRANCH   1   2
TORSDOF 3
ENDMDL
MODEL 6
REMARK VINA RESULT:      -8.9      3.639      6.937
REMARK  Name = Fragment
REMARK  3 active torsions:
REMARK  status: ('A' for Active; 'I' for Inactive)
REMARK    1  A    between atoms: C_1  and  C_2
REMARK    2  A    between atoms: C_2  and  C_4
REMARK    3  A    between atoms: C_10  and  C_11
REMARK                            x       y       z     vdW  Elec       q    Type
REMARK                         _______ _______ _______ _____ _____    ______ ____
ROOT
ATOM      1  C   UNL     1     -14.082 -44.328  27.041  0.00  0.00    +0.000 C 
ATOM     10  C   UNL     1     -14.331 -44.034  25.747  0.00  0.00    +0.000 C 
ENDROOT
BRANCH  10  11
ATOM     11  C   UNL     1     -15.444 -43.472  25.221  0.00  0.00    +0.000 A 
ATOM     12  C   UNL     1     -15.567 -43.412  23.878  0.00  0.00    +0.000 A 
ATOM     13  C   UNL     1     -16.641 -42.871  23.283  0.00  0.00    +0.000 A 
ATOM     14  C   UNL     1     -17.640 -42.365  24.021  0.00  0.00    +0.000 A 
ATOM     15  C   UNL     1     -17.539 -42.415  25.357  0.00  0.00    +0.000 A 
ATOM     16  C   UNL     1     -16.461 -42.958  25.943  0.00  0.00    +0.000 A 
ATOM     17  F   UNL     1     -18.703 -41.830  23.444  0.00  0.00    +0.000 F 
ENDBRANCH  10  11
BRANCH   1   2
ATOM      2  C   UNL     1     -12.924 -44.899  27.495  0.00  0.00    +0.000 C 
ATOM      3  O   UNL     1     -12.863 -46.113  27.566  0.00  0.00    +0.000 OA
BRANCH   2   4
ATOM      4  C   UNL     1     -11.844 -44.131  27.866  0.00  0.00    +0.000 A 
ATOM      5  C   UNL     1     -10.818 -44.706  28.535  0.00  0.00    +0.000 A 
ATOM      6  C   UNL     1      -9.736 -44.015  28.927  0.00  0.00    +0.000 A 
ATOM      7  C   UNL     1      -9.638 -42.707  28.660  0.00  0.00    +0.000 A 
ATOM      8  C   UNL     1     -10.638 -42.109  27.999  0.00  0.00    +0.000 A 
ATOM      9  C   UNL     1     -11.717 -42.811  27.612  0.00  0.00    +0.000 A 
ENDBRANCH   2   4
ENDBRANCH   1   2
TORSDOF 3
ENDMDL
MODEL 7
REMARK VINA RESULT:      -8.8      3.629      7.100
REMARK  Name = Fragment
REMARK  3 active torsions:
REMARK  status: ('A' for Active; 'I' for Inactive)
REMARK    1  A    between atoms: C_1  and  C_2
REMARK    2  A    between atoms: C_2  and  C_4
REMARK    3  A    between atoms: C_10  and  C_11
REMARK                            x       y       z     vdW  Elec       q    Type
REMARK                         _______ _______ _______ _____ _____    ______ ____
ROOT
ATOM      1  C   UNL     1     -16.174 -42.677  24.749  0.00  0.00    +0.000 C 
ATOM     10  C   UNL     1     -17.219 -43.062  25.514  0.00  0.00    +0.000 C 
ENDROOT
BRANCH  10  11
ATOM     11  C   UNL     1     -18.372 -42.394  25.743  0.00  0.00    +0.000 A 
ATOM     12  C   UNL     1     -19.118 -42.007  24.686  0.00  0.00    +0.000 A 
ATOM     13  C   UNL     1     -20.273 -41.341  24.834  0.00  0.00    +0.000 A 
ATOM     14  C   UNL     1     -20.727 -41.035  26.058  0.00  0.00    +0.000 A 
ATOM     15  C   UNL     1     -20.002 -41.409  27.122  0.00  0.00    +0.000 A 
ATOM     16  C   UNL     1     -18.847 -42.076  26.964  0.00  0.00    +0.000 A 
ATOM     17  F   UNL     1     -21.864 -40.379  26.213  0.00  0.00    +0.000 F 
ENDBRANCH  10  11
BRANCH   1   2
ATOM      2  C   UNL     1     -15.036 -43.415  24.566  0.00  0.00    +0.000 C 
ATOM      3  O   UNL     1     -14.744 -43.764  23.437  0.00  0.00    +0.000 OA
BRANCH   2   4
ATOM      4  C   UNL     1     -14.229 -43.762  25.626  0.00  0.00    +0.000 A 
ATOM      5  C   UNL     1     -13.494 -42.808  26.242  0.00  0.00    +0.000 A 
ATOM      6  C   UNL     1     -12.687 -43.078  27.280  0.00  0.00    +0.000 A 
ATOM      7  C   UNL     1     -12.585 -44.328  27.747  0.00  0.00    +0.000 A 
ATOM      8  C   UNL     1     -13.300 -45.295  27.158  0.00  0.00    +0.000 A 
ATOM      9  C   UNL     1     -14.104 -45.013  26.119  0.00  0.00    +0.000 A 
ENDBRANCH   2   4
ENDBRANCH   1   2
TORSDOF 3
ENDMDL
MODEL 8
REMARK VINA RESULT:      -8.3      2.794      4.577
REMARK  Name = Fragment
REMARK  3 active torsions:
REMARK  status: ('A' for Active; 'I' for Inactive)
REMARK    1  A    between atoms: C_1  and  C_2
REMARK    2  A    between atoms: C_2  and  C_4
REMARK    3  A    between atoms: C_10  and  C_11
REMARK                            x       y       z     vdW  Elec       q    Type
REMARK                         _______ _______ _______ _____ _____    ______ ____
ROOT
ATOM      1  C   UNL     1     -16.600 -42.269  23.050  0.00  0.00    +0.000 C 
ATOM     10  C   UNL     1     -15.943 -42.065  24.213  0.00  0.00    +0.000 C 
ENDROOT
BRANCH  10  11
ATOM     11  C   UNL     1     -15.332 -42.984  24.995  0.00  0.00    +0.000 A 
ATOM     12  C   UNL     1     -15.362 -42.818  26.335  0.00  0.00    +0.000 A 
ATOM     13  C   UNL     1     -14.779 -43.687  27.174  0.00  0.00    +0.000 A 
ATOM     14  C   UNL     1     -14.138 -44.763  26.697  0.00  0.00    +0.000 A 
ATOM     15  C   UNL     1     -14.094 -44.947  25.370  0.00  0.00    +0.000 A 
ATOM     16  C   UNL     1     -14.681 -44.073  24.537  0.00  0.00    +0.000 A 
ATOM     17  F   UNL     1     -13.560 -45.625  27.517  0.00  0.00    +0.000 F 
ENDBRANCH  10  11
BRANCH   1   2
ATOM      2  C   UNL     1     -17.195 -41.280  22.314  0.00  0.00    +0.000 C 
ATOM      3  O   UNL     1     -16.539 -40.719  21.457  0.00  0.00    +0.000 OA
BRANCH   2   4
ATOM      4  C   UNL     1     -18.505 -40.918  22.528  0.00  0.00    +0.000 A 
ATOM      5  C   UNL     1     -19.088 -40.016  21.705  0.00  0.00    +0.000 A 
ATOM      6  C   UNL     1     -20.362 -39.620  21.857  0.00  0.00    +0.000 A 
ATOM      7  C   UNL     1     -21.109 -40.117  22.851  0.00  0.00    +0.000 A 
ATOM      8  C   UNL     1     -20.560 -41.012  23.682  0.00  0.00    +0.000 A 
ATOM      9  C   UNL     1     -19.284 -41.402  23.520  0.00  0.00    +0.000 A 
ENDBRANCH   2   4
ENDBRANCH   1   2
TORSDOF 3
ENDMDL
MODEL 9
REMARK VINA RESULT:      -8.3     21.221     23.886
REMARK  Name = Fragment
REMARK  3 active torsions:
REMARK  status: ('A' for Active; 'I' for Inactive)
REMARK    1  A    between atoms: C_1  and  C_2
REMARK    2  A    between atoms: C_2  and  C_4
REMARK    3  A    between atoms: C_10  and  C_11
REMARK                            x       y       z     vdW  Elec       q    Type
REMARK                         _______ _______ _______ _____ _____    ______ ____
ROOT
ATOM      1  C   UNL     1       4.362 -55.055  17.763  0.00  0.00    +0.000 C 
ATOM     10  C   UNL     1       3.931 -55.790  16.714  0.00  0.00    +0.000 C 
ENDROOT
BRANCH  10  11
ATOM     11  C   UNL     1       4.274 -55.661  15.412  0.00  0.00    +0.000 A 
ATOM     12  C   UNL     1       5.565 -55.412  15.103  0.00  0.00    +0.000 A 
ATOM     13  C   UNL     1       5.981 -55.271  13.835  0.00  0.00    +0.000 A 
ATOM     14  C   UNL     1       5.109 -55.375  12.822  0.00  0.00    +0.000 A 
ATOM     15  C   UNL     1       3.822 -55.622  13.105  0.00  0.00    +0.000 A 
ATOM     16  C   UNL     1       3.416 -55.761  14.377  0.00  0.00    +0.000 A 
ATOM     17  F   UNL     1       5.510 -55.238  11.569  0.00  0.00    +0.000 F 
ENDBRANCH  10  11
BRANCH   1   2
ATOM      2  C   UNL     1       3.966 -55.250  19.058  0.00  0.00    +0.000 C 
ATOM      3  O   UNL     1       4.403 -56.213  19.661  0.00  0.00    +0.000 OA
BRANCH   2   4
ATOM      4  C   UNL     1       3.094 -54.386  19.679  0.00  0.00    +0.000 A 
ATOM      5  C   UNL     1       3.265 -53.051  19.535  0.00  0.00    +0.000 A 
ATOM      6  C   UNL     1       2.451 -52.153  20.112  0.00  0.00    +0.000 A 
ATOM      7  C   UNL     1       1.422 -52.562  20.865  0.00  0.00    +0.000 A 
ATOM      8  C   UNL     1       1.227 -53.877  21.026  0.00  0.00    +0.000 A 
ATOM      9  C   UNL     1       2.047 -54.767  20.444  0.00  0.00    +0.000 A 
ENDBRANCH   2   4
ENDBRANCH   1   2
TORSDOF 3
ENDMDL
MODEL 10
REMARK VINA RESULT:      -8.2      2.611      4.225
REMARK  Name = Fragment
REMARK  3 active torsions:
REMARK  status: ('A' for Active; 'I' for Inactive)
REMARK    1  A    between atoms: C_1  and  C_2
REMARK    2  A    between atoms: C_2  and  C_4
REMARK    3  A    between atoms: C_10  and  C_11
REMARK                            x       y       z     vdW  Elec       q    Type
REMARK                         _______ _______ _______ _____ _____    ______ ____
ROOT
ATOM      1  C   UNL     1     -17.865 -42.780  24.527  0.00  0.00    +0.000 C 
ATOM     10  C   UNL     1     -16.664 -42.437  25.041  0.00  0.00    +0.000 C 
ENDROOT
BRANCH  10  11
ATOM     11  C   UNL     1     -15.713 -43.254  25.549  0.00  0.00    +0.000 A 
ATOM     12  C   UNL     1     -15.503 -43.252  26.883  0.00  0.00    +0.000 A 
ATOM     13  C   UNL     1     -14.578 -44.034  27.461  0.00  0.00    +0.000 A 
ATOM     14  C   UNL     1     -13.824 -44.854  26.715  0.00  0.00    +0.000 A 
ATOM     15  C   UNL     1     -14.016 -44.873  25.388  0.00  0.00    +0.000 A 
ATOM     16  C   UNL     1     -14.944 -44.086  24.820  0.00  0.00    +0.000 A 
ATOM     17  F   UNL     1     -12.910 -45.629  27.275  0.00  0.00    +0.000 F 
ENDBRANCH  10  11
BRANCH   1   2
ATOM      2  C   UNL     1     -18.777 -41.888  24.029  0.00  0.00    +0.000 C 
ATOM      3  O   UNL     1     -18.619 -41.466  22.899  0.00  0.00    +0.000 OA
BRANCH   2   4
ATOM      4  C   UNL     1     -19.852 -41.470  24.779  0.00  0.00    +0.000 A 
ATOM      5  C   UNL     1     -19.796 -41.557  26.128  0.00  0.00    +0.000 A 
ATOM      6  C   UNL     1     -20.809 -41.166  26.918  0.00  0.00    +0.000 A 
ATOM      7  C   UNL     1     -21.929 -40.667  26.380  0.00  0.00    +0.000 A 
ATOM      8  C   UNL     1     -22.014 -40.569  25.048  0.00  0.00    +0.000 A 
ATOM      9  C   UNL     1     -20.995 -40.963  24.267  0.00  0.00    +0.000 A 
ENDBRANCH   2   4
ENDBRANCH   1   2
TORSDOF 3
ENDMDL
