MODEL 1
REMARK VINA RESULT:      -9.8      0.000      0.000
REMARK  Name = Fragment
REMARK  4 active torsions:
REMARK  status: ('A' for Active; 'I' for Inactive)
REMARK    1  A    between atoms: C_1  and  C_2
REMARK    2  A    between atoms: C_2  and  C_4
REMARK    3  A    between atoms: C_7  and  O_17
REMARK    4  A    between atoms: C_10  and  C_11
REMARK                            x       y       z     vdW  Elec       q    Type
REMARK                         _______ _______ _______ _____ _____    ______ ____
ROOT
ATOM      2  C   UNL     1     -13.245 -45.459  29.227  0.00  0.00    +0.000 C 
ATOM      3  O   UNL     1     -14.111 -45.370  30.078  0.00  0.00    +0.000 OA
ENDROOT
BRANCH   2   4
ATOM      4  C   UNL     1     -11.971 -45.842  29.578  0.00  0.00    +0.000 A 
ATOM      5  C   UNL     1     -11.626 -45.899  30.882  0.00  0.00    +0.000 A 
ATOM      6  C   UNL     1     -10.399 -46.265  31.287  0.00  0.00    +0.000 A 
ATOM      7  C   UNL     1      -9.442 -46.597  30.408  0.00  0.00    +0.000 A 
ATOM      8  C   UNL     1      -9.772 -46.544  29.109  0.00  0.00    +0.000 A 
ATOM      9  C   UNL     1     -10.999 -46.178  28.704  0.00  0.00    +0.000 A 
BRANCH   7  17
ATOM     17  O   UNL     1      -8.196 -46.968  30.808  0.00  0.00    +0.000 OA
ATOM     18  H   UNL     1      -8.136 -46.887  31.773  0.00  0.00    +0.000 HD
ENDBRANCH   7  17
ENDBRANCH   2   4
BRANCH   2   1
ATOM      1  C   UNL     1     -13.570 -45.171  27.928  0.00  0.00    +0.000 C 
ATOM     10  C   UNL     1     -14.493 -44.259  27.556  0.00  0.00    +0.000 C 
BRANCH  10  11
ATOM     11  C   UNL     1     -14.868 -43.920  26.301  0.00  0.00    +0.000 A 
ATOM     12  C   UNL     1     -15.812 -42.967  26.142  0.00  0.00    +0.000 A 
ATOM     13  C   UNL     1     -16.235 -42.579  24.930  0.00  0.00    +0.000 A 
ATOM     14  C   UNL     1     -15.719 -43.138  23.827  0.00  0.00    +0.000 A 
ATOM     15  C   UNL     1     -14.781 -44.086  23.957  0.00  0.00    +0.000 A 
ATOM     16  C   UNL     1     -14.366 -44.467  25.175  0.00  0.00    +0.000 A 
ENDBRANCH  10  11
ENDBRANCH   2   1
TORSDOF 4
ENDMDL
MODEL 2
REMARK VINA RESULT:      -9.6      2.953      7.599
REMARK  Name = Fragment
REMARK  4 active torsions:
REMARK  status: ('A' for Active; 'I' for Inactive)
REMARK    1  A    between atoms: C_1  and  C_2
REMARK    2  A    between atoms: C_2  and  C_4
REMARK    3  A    between atoms: C_7  and  O_17
REMARK    4  A    between atoms: C_10  and  C_11
REMARK                            x       y       z     vdW  Elec       q    Type
REMARK                         _______ _______ _______ _____ _____    ______ ____
ROOT
ATOM      2  C   UNL     1     -15.841 -42.894  26.733  0.00  0.00    +0.000 C 
ATOM      3  O   UNL     1     -16.270 -42.381  27.751  0.00  0.00    +0.000 OA
ENDROOT
BRANCH   2   4
ATOM      4  C   UNL     1     -16.558 -42.805  25.562  0.00  0.00    +0.000 A 
ATOM      5  C   UNL     1     -17.868 -42.480  25.603  0.00  0.00    +0.000 A 
ATOM      6  C   UNL     1     -18.619 -42.378  24.495  0.00  0.00    +0.000 A 
ATOM      7  C   UNL     1     -18.102 -42.595  23.277  0.00  0.00    +0.000 A 
ATOM      8  C   UNL     1     -16.802 -42.919  23.222  0.00  0.00    +0.000 A 
ATOM      9  C   UNL     1     -16.050 -43.021  24.330  0.00  0.00    +0.000 A 
BRANCH   7  17
ATOM     17  O   UNL     1     -18.855 -42.496  22.148  0.00  0.00    +0.000 OA
ATOM     18  H   UNL     1     -18.434 -43.008  21.439  0.00  0.00    +0.000 HD
ENDBRANCH   7  17
ENDBRANCH   2   4
BRANCH   2   1
ATOM      1  C   UNL     1     -14.642 -43.552  26.786  0.00  0.00    +0.000 C 
ATOM     10  C   UNL     1     -14.260 -44.363  27.797  0.00  0.00    +0.000 C 
BRANCH  10  11
ATOM     11  C   UNL     1     -13.098 -45.045  27.921  0.00  0.00    +0.000 A 
ATOM     12  C   UNL     1     -12.937 -46.184  27.213  0.00  0.00    +0.000 A 
ATOM     13  C   UNL     1     -11.814 -46.915  27.286  0.00  0.00    +0.000 A 
ATOM     14  C   UNL     1     -10.806 -46.522  28.076  0.00  0.00    +0.000 A 
ATOM     15  C   UNL     1     -10.940 -45.395  28.790  0.00  0.00    +0.000 A 
ATOM     16  C   UNL     1     -12.069 -44.673  28.710  0.00  0.00    +0.000 A 
ENDBRANCH  10  11
ENDBRANCH   2   1
TORSDOF 4
ENDMDL
MODEL 3
REMARK VINA RESULT:      -9.5      3.379      7.378
REMARK  Name = Fragment
REMARK  4 active torsions:
REMARK  status: ('A' for Active; 'I' for Inactive)
REMARK    1  A    between atoms: C_1  and  C_2
REMARK    2  A    between atoms: C_2  and  C_4
REMARK    3  A    between atoms: C_7  and  O_17
REMARK    4  A    between atoms: C_10  and  C_11
REMARK                            x       y       z     vdW  Elec       q    Type
REMARK                         _______ _______ _______ _____ _____    ______ ____
ROOT
ATOM      2  C   UNL     1     -15.421 -43.194  25.049  0.00  0.00    +0.000 C 
ATOM      3  O   UNL     1     -15.307 -43.312  23.842  0.00  0.00    +0.000 OA
ENDROOT
BRANCH   2   4
ATOM      4  C   UNL     1     -16.621 -42.797  25.591  0.00  0.00    +0.000 A 
ATOM      5  C   UNL     1     -16.742 -42.673  26.930  0.00  0.00    +0.000 A 
ATOM      6  C   UNL     1     -17.887 -42.290  27.518  0.00  0.00    +0.000 A 
ATOM      7  C   UNL     1     -18.983 -42.007  26.798  0.00  0.00    +0.000 A 
ATOM      8  C   UNL     1     -18.876 -42.126  25.466  0.00  0.00    +0.000 A 
ATOM      9  C   UNL     1     -17.731 -42.509  24.878  0.00  0.00    +0.000 A 
BRANCH   7  17
ATOM     17  O   UNL     1     -20.148 -41.619  27.383  0.00  0.00    +0.000 OA
ATOM     18  H   UNL     1     -20.696 -42.403  27.547  0.00  0.00    +0.000 HD
ENDBRANCH   7  17
ENDBRANCH   2   4
BRANCH   2   1
ATOM      1  C   UNL     1     -14.337 -43.463  25.840  0.00  0.00    +0.000 C 
ATOM     10  C   UNL     1     -14.071 -44.669  26.387  0.00  0.00    +0.000 C 
BRANCH  10  11
ATOM     11  C   UNL     1     -13.026 -45.012  27.175  0.00  0.00    +0.000 A 
ATOM     12  C   UNL     1     -12.363 -44.037  27.832  0.00  0.00    +0.000 A 
ATOM     13  C   UNL     1     -11.317 -44.300  28.630  0.00  0.00    +0.000 A 
ATOM     14  C   UNL     1     -10.900 -45.562  28.798  0.00  0.00    +0.000 A 
ATOM     15  C   UNL     1     -11.541 -46.549  28.158  0.00  0.00    +0.000 A 
ATOM     16  C   UNL     1     -12.586 -46.274  27.360  0.00  0.00    +0.000 A 
ENDBRANCH  10  11
ENDBRANCH   2   1
TORSDOF 4
ENDMDL
MODEL 4
REMARK VINA RESULT:      -9.4      3.455      7.792
REMARK  Name = Fragment
REMARK  4 active torsions:
REMARK  status: ('A' for Active; 'I' for Inactive)
REMARK    1  A    between atoms: C_1  and  C_2
REMARK    2  A    between atoms: C_2  and  C_4
REMARK    3  A    between atoms: C_7  and  O_17
REMARK    4  A    between atoms: C_10  and  C_11
REMARK                            x       y       z     vdW  Elec       q    Type
REMARK                         _______ _______ _______ _____ _____    ______ ____
ROOT
ATOM      2  C   UNL     1     -16.097 -43.056  25.477  0.00  0.00    +0.000 C 
ATOM      3  O   UNL     1     -15.945 -43.217  24.279  0.00  0.00    +0.000 OA
ENDROOT
BRANCH   2   4
ATOM      4  C   UNL     1     -17.299 -42.595  25.962  0.00  0.00    +0.000 A 
ATOM      5  C   UNL     1     -18.266 -42.212  25.101  0.00  0.00    +0.000 A 
ATOM      6  C   UNL     1     -19.458 -41.754  25.514  0.00  0.00    +0.000 A 
ATOM      7  C   UNL     1     -19.755 -41.652  26.818  0.00  0.00    +0.000 A 
ATOM      8  C   UNL     1     -18.804 -42.029  27.684  0.00  0.00    +0.000 A 
ATOM      9  C   UNL     1     -17.611 -42.487  27.272  0.00  0.00    +0.000 A 
BRANCH   7  17
ATOM     17  O   UNL     1     -20.960 -41.188  27.246  0.00  0.00    +0.000 OA
ATOM     18  H   UNL     1     -21.331 -41.815  27.888  0.00  0.00    +0.000 HD
ENDBRANCH   7  17
ENDBRANCH   2   4
BRANCH   2   1
ATOM      1  C   UNL     1     -15.053 -43.343  26.315  0.00  0.00    +0.000 C 
ATOM     10  C   UNL     1     -14.286 -44.451  26.228  0.00  0.00    +0.000 C 
BRANCH  10  11
ATOM     11  C   UNL     1     -13.243 -44.803  27.014  0.00  0.00    +0.000 A 
ATOM     12  C   UNL     1     -12.923 -46.111  27.117  0.00  0.00    +0.000 A 
ATOM     13  C   UNL     1     -11.902 -46.537  27.878  0.00  0.00    +0.000 A 
ATOM     14  C   UNL     1     -11.162 -45.656  28.564  0.00  0.00    +0.000 A 
ATOM     15  C   UNL     1     -11.459 -44.352  28.479  0.00  0.00    +0.000 A 
ATOM     16  C   UNL     1     -12.483 -43.937  27.716  0.00  0.00    +0.000 A 
ENDBRANCH  10  11
ENDBRANCH   2   1
TORSDOF 4
ENDMDL
MODEL 5
REMARK VINA RESULT:      -9.1      2.663      4.027
REMARK  Name = Fragment
REMARK  4 active torsions:
REMARK  status: ('A' for Active; 'I' for Inactive)
REMARK    1  A    between atoms: C_1  and  C_2
REMARK    2  A    between atoms: C_2  and  C_4
REMARK    3  A    between atoms: C_7  and  O_17
REMARK    4  A    between atoms: C_10  and  C_11
REMARK                            x       y       z     vdW  Elec       q    Type
REMARK                         _______ _______ _______ _____ _____    ______ ____
ROOT
ATOM      2  C   UNL     1     -14.166 -43.477  25.978  0.00  0.00    +0.000 C 
ATOM      3  O   UNL     1     -13.786 -43.176  24.861  0.00  0.00    +0.000 OA
ENDROOT
BRANCH   2   4
ATOM      4  C   UNL     1     -13.338 -44.184  26.819  0.00  0.00    +0.000 A 
ATOM      5  C   UNL     1     -13.461 -45.527  26.905  0.00  0.00    +0.000 A 
ATOM      6  C   UNL     1     -12.683 -46.271  27.707  0.00  0.00    +0.000 A 
ATOM      7  C   UNL     1     -11.733 -45.715  28.473  0.00  0.00    +0.000 A 
ATOM      8  C   UNL     1     -11.600 -44.383  28.397  0.00  0.00    +0.000 A 
ATOM      9  C   UNL     1     -12.378 -43.637  27.595  0.00  0.00    +0.000 A 
BRANCH   7  17
ATOM     17  O   UNL     1     -10.940 -46.460  29.290  0.00  0.00    +0.000 OA
ATOM     18  H   UNL     1     -11.229 -47.386  29.253  0.00  0.00    +0.000 HD
ENDBRANCH   7  17
ENDBRANCH   2   4
BRANCH   2   1
ATOM      1  C   UNL     1     -15.422 -43.097  26.368  0.00  0.00    +0.000 C 
ATOM     10  C   UNL     1     -16.421 -42.775  25.519  0.00  0.00    +0.000 C 
BRANCH  10  11
ATOM     11  C   UNL     1     -17.682 -42.393  25.825  0.00  0.00    +0.000 A 
ATOM     12  C   UNL     1     -18.052 -42.362  27.124  0.00  0.00    +0.000 A 
ATOM     13  C   UNL     1     -19.285 -41.994  27.505  0.00  0.00    +0.000 A 
ATOM     14  C   UNL     1     -20.195 -41.641  26.587  0.00  0.00    +0.000 A 
ATOM     15  C   UNL     1     -19.853 -41.663  25.292  0.00  0.00    +0.000 A 
ATOM     16  C   UNL     1     -18.617 -42.033  24.922  0.00  0.00    +0.000 A 
ENDBRANCH  10  11
ENDBRANCH   2   1
TORSDOF 4
ENDMDL
MODEL 6
REMARK VINA RESULT:      -8.8      3.683      8.053
REMARK  Name = Fragment
REMARK  4 active torsions:
REMARK  status: ('A' for Active; 'I' for Inactive)
REMARK    1  A    between atoms: C_1  and  C_2
REMARK    2  A    between atoms: C_2  and  C_4
REMARK    3  A    between atoms: C_7  and  O_17
REMARK    4  A    between atoms: C_10  and  C_11
REMARK                            x       y       z     vdW  Elec       q    Type
REMARK                         _______ _______ _______ _____ _____    ______ ____
ROOT
ATOM      2  C   UNL     1     -15.274 -42.474  24.194  0.00  0.00    +0.000 C 
ATOM      3  O   UNL     1     -14.607 -41.694  23.539  0.00  0.00    +0.000 OA
ENDROOT
BRANCH   2   4
ATOM      4  C   UNL     1     -16.647 -42.394  24.170  0.00  0.00    +0.000 A 
ATOM      5  C   UNL     1     -17.347 -42.560  25.313  0.00  0.00    +0.000 A 
ATOM      6  C   UNL     1     -18.687 -42.493  25.354  0.00  0.00    +0.000 A 
ATOM      7  C   UNL     1     -19.409 -42.255  24.249  0.00  0.00    +0.000 A 
ATOM      8  C   UNL     1     -18.727 -42.088  23.107  0.00  0.00    +0.000 A 
ATOM      9  C   UNL     1     -17.386 -42.155  23.066  0.00  0.00    +0.000 A 
BRANCH   7  17
ATOM     17  O   UNL     1     -20.768 -42.186  24.280  0.00  0.00    +0.000 OA
ATOM     18  H   UNL     1     -21.134 -42.957  23.818  0.00  0.00    +0.000 HD
ENDBRANCH   7  17
ENDBRANCH   2   4
BRANCH   2   1
ATOM      1  C   UNL     1     -14.628 -43.420  24.944  0.00  0.00    +0.000 C 
ATOM     10  C   UNL     1     -13.869 -43.148  26.026  0.00  0.00    +0.000 C 
BRANCH  10  11
ATOM     11  C   UNL     1     -13.203 -44.022  26.815  0.00  0.00    +0.000 A 
ATOM     12  C   UNL     1     -13.485 -45.339  26.706  0.00  0.00    +0.000 A 
ATOM     13  C   UNL     1     -12.867 -46.265  27.455  0.00  0.00    +0.000 A 
ATOM     14  C   UNL     1     -11.935 -45.897  28.344  0.00  0.00    +0.000 A 
ATOM     15  C   UNL     1     -11.635 -44.597  28.472  0.00  0.00    +0.000 A 
ATOM     16  C   UNL     1     -12.261 -43.680  27.718  0.00  0.00    +0.000 A 
ENDBRANCH  10  11
ENDBRANCH   2   1
TORSDOF 4
ENDMDL
MODEL 7
REMARK VINA RESULT:      -8.2      5.223      8.047
REMARK  Name = Fragment
REMARK  4 active torsions:
REMARK  status: ('A' for Active; 'I' for Inactive)
REMARK    1  A    between atoms: C_1  and  C_2
REMARK    2  A    between atoms: C_2  and  C_4
REMARK    3  A    between atoms: C_7  and  O_17
REMARK    4  A    between atoms: C_10  and  C_11
REMARK                            x       y       z     vdW  Elec       q    Type
REMARK                         _______ _______ _______ _____ _____    ______ ____
ROOT
ATOM      2  C   UNL     1     -17.605 -42.560  23.852  0.00  0.00    +0.000 C 
ATOM      3  O   UNL     1     -16.868 -43.217  23.140  0.00  0.00    +0.000 OA
ENDROOT
BRANCH   2   4
ATOM      4  C   UNL     1     -17.419 -42.552  25.215  0.00  0.00    +0.000 A 
ATOM      5  C   UNL     1     -16.194 -42.803  25.725  0.00  0.00    +0.000 A 
ATOM      6  C   UNL     1     -15.950 -42.809  27.045  0.00  0.00    +0.000 A 
ATOM      7  C   UNL     1     -16.920 -42.562  27.937  0.00  0.00    +0.000 A 
ATOM      8  C   UNL     1     -18.142 -42.311  27.445  0.00  0.00    +0.000 A 
ATOM      9  C   UNL     1     -18.387 -42.305  26.124  0.00  0.00    +0.000 A 
BRANCH   7  17
ATOM     17  O   UNL     1     -16.684 -42.567  29.277  0.00  0.00    +0.000 OA
ATOM     18  H   UNL     1     -16.387 -43.452  29.543  0.00  0.00    +0.000 HD
ENDBRANCH   7  17
ENDBRANCH   2   4
BRANCH   2   1
ATOM      1  C   UNL     1     -18.612 -41.840  23.267  0.00  0.00    +0.000 C 
ATOM     10  C   UNL     1     -18.432 -40.953  22.264  0.00  0.00    +0.000 C 
BRANCH  10  11
ATOM     11  C   UNL     1     -19.370 -40.207  21.637  0.00  0.00    +0.000 A 
ATOM     12  C   UNL     1     -20.388 -39.699  22.365  0.00  0.00    +0.000 A 
ATOM     13  C   UNL     1     -21.355 -38.951  21.813  0.00  0.00    +0.000 A 
ATOM     14  C   UNL     1     -21.332 -38.683  20.500  0.00  0.00    +0.000 A 
ATOM     15  C   UNL     1     -20.333 -39.175  19.755  0.00  0.00    +0.000 A 
ATOM     16  C   UNL     1     -19.370 -39.923  20.318  0.00  0.00    +0.000 A 
ENDBRANCH  10  11
ENDBRANCH   2   1
TORSDOF 4
ENDMDL
MODEL 8
REMARK VINA RESULT:      -8.2     19.825     22.304
REMARK  Name = Fragment
REMARK  4 active torsions:
REMARK  status: ('A' for Active; 'I' for Inactive)
REMARK    1  A    between atoms: C_1  and  C_2
REMARK    2  A    between atoms: C_2  and  C_4
REMARK    3  A    between atoms: C_7  and  O_17
REMARK    4  A    between atoms: C_10  and  C_11
REMARK                            x       y       z     vdW  Elec       q    Type
REMARK                         _______ _______ _______ _____ _____    ______ ____
ROOT
ATOM      2  C   UNL     1       4.146 -55.550  18.672  0.00  0.00    +0.000 C 
ATOM      3  O   UNL     1       4.696 -56.514  19.171  0.00  0.00    +0.000 OA
ENDROOT
BRANCH   2   4
ATOM      4  C   UNL     1       3.244 -54.815  19.407  0.00  0.00    +0.000 A 
ATOM      5  C   UNL     1       3.351 -53.469  19.445  0.00  0.00    +0.000 A 
ATOM      6  C   UNL     1       2.501 -52.699  20.143  0.00  0.00    +0.000 A 
ATOM      7  C   UNL     1       1.492 -53.231  20.848  0.00  0.00    +0.000 A 
ATOM      8  C   UNL     1       1.375 -54.567  20.818  0.00  0.00    +0.000 A 
ATOM      9  C   UNL     1       2.224 -55.338  20.120  0.00  0.00    +0.000 A 
BRANCH   7  17
ATOM     17  O   UNL     1       0.626 -52.460  21.559  0.00  0.00    +0.000 OA
ATOM     18  H   UNL     1       0.632 -51.559  21.196  0.00  0.00    +0.000 HD
ENDBRANCH   7  17
ENDBRANCH   2   4
BRANCH   2   1
ATOM      1  C   UNL     1       4.446 -55.220  17.378  0.00  0.00    +0.000 C 
ATOM     10  C   UNL     1       4.007 -55.899  16.296  0.00  0.00    +0.000 C 
BRANCH  10  11
ATOM     11  C   UNL     1       4.258 -55.638  14.993  0.00  0.00    +0.000 A 
ATOM     12  C   UNL     1       5.523 -55.341  14.624  0.00  0.00    +0.000 A 
ATOM     13  C   UNL     1       5.849 -55.070  13.350  0.00  0.00    +0.000 A 
ATOM     14  C   UNL     1       4.908 -55.090  12.397  0.00  0.00    +0.000 A 
ATOM     15  C   UNL     1       3.645 -55.382  12.736  0.00  0.00    +0.000 A 
ATOM     16  C   UNL     1       3.330 -55.651  14.013  0.00  0.00    +0.000 A 
ENDBRANCH  10  11
ENDBRANCH   2   1
TORSDOF 4
ENDMDL
MODEL 9
REMARK VINA RESULT:      -8.0      5.294      9.988
REMARK  Name = Fragment
REMARK  4 active torsions:
REMARK  status: ('A' for Active; 'I' for Inactive)
REMARK    1  A    between atoms: C_1  and  C_2
REMARK    2  A    between atoms: C_2  and  C_4
REMARK    3  A    between atoms: C_7  and  O_17
REMARK    4  A    between atoms: C_10  and  C_11
REMARK                            x       y       z     vdW  Elec       q    Type
REMARK                         _______ _______ _______ _____ _____    ______ ____
ROOT
ATOM      2  C   UNL     1     -17.194 -41.184  22.282  0.00  0.00    +0.000 C 
ATOM      3  O   UNL     1     -16.410 -40.714  21.478  0.00  0.00    +0.000 OA
ENDROOT
BRANCH   2   4
ATOM      4  C   UNL     1     -18.501 -40.753  22.302  0.00  0.00    +0.000 A 
ATOM      5  C   UNL     1     -19.321 -41.148  23.300  0.00  0.00    +0.000 A 
ATOM      6  C   UNL     1     -20.604 -40.761  23.373  0.00  0.00    +0.000 A 
ATOM      7  C   UNL     1     -21.145 -39.953  22.450  0.00  0.00    +0.000 A 
ATOM      8  C   UNL     1     -20.342 -39.552  21.454  0.00  0.00    +0.000 A 
ATOM      9  C   UNL     1     -19.058 -39.939  21.379  0.00  0.00    +0.000 A 
BRANCH   7  17
ATOM     17  O   UNL     1     -22.445 -39.555  22.515  0.00  0.00    +0.000 OA
ATOM     18  H   UNL     1     -23.017 -40.306  22.290  0.00  0.00    +0.000 HD
ENDBRANCH   7  17
ENDBRANCH   2   4
BRANCH   2   1
ATOM      1  C   UNL     1     -16.747 -42.141  23.153  0.00  0.00    +0.000 C 
ATOM     10  C   UNL     1     -15.736 -41.961  24.031  0.00  0.00    +0.000 C 
BRANCH  10  11
ATOM     11  C   UNL     1     -15.239 -42.852  24.919  0.00  0.00    +0.000 A 
ATOM     12  C   UNL     1     -14.665 -43.982  24.452  0.00  0.00    +0.000 A 
ATOM     13  C   UNL     1     -14.151 -44.912  25.271  0.00  0.00    +0.000 A 
ATOM     14  C   UNL     1     -14.194 -44.735  26.599  0.00  0.00    +0.000 A 
ATOM     15  C   UNL     1     -14.757 -43.623  27.089  0.00  0.00    +0.000 A 
ATOM     16  C   UNL     1     -15.269 -42.699  26.259  0.00  0.00    +0.000 A 
ENDBRANCH  10  11
ENDBRANCH   2   1
TORSDOF 4
ENDMDL
MODEL 10
REMARK VINA RESULT:      -7.9      5.802     10.719
REMARK  Name = Fragment
REMARK  4 active torsions:
REMARK  status: ('A' for Active; 'I' for Inactive)
REMARK    1  A    between atoms: C_1  and  C_2
REMARK    2  A    between atoms: C_2  and  C_4
REMARK    3  A    between atoms: C_7  and  O_17
REMARK    4  A    between atoms: C_10  and  C_11
REMARK                            x       y       z     vdW  Elec       q    Type
REMARK                         _______ _______ _______ _____ _____    ______ ____
ROOT
ATOM      2  C   UNL     1     -19.672 -41.235  23.461  0.00  0.00    +0.000 C 
ATOM      3  O   UNL     1     -20.518 -41.462  24.308  0.00  0.00    +0.000 OA
ENDROOT
BRANCH   2   4
ATOM      4  C   UNL     1     -19.982 -40.455  22.370  0.00  0.00    +0.000 A 
ATOM      5  C   UNL     1     -19.209 -40.514  21.265  0.00  0.00    +0.000 A 
ATOM      6  C   UNL     1     -19.460 -39.778  20.170  0.00  0.00    +0.000 A 
ATOM      7  C   UNL     1     -20.504 -38.937  20.117  0.00  0.00    +0.000 A 
ATOM      8  C   UNL     1     -21.280 -38.870  21.208  0.00  0.00    +0.000 A 
ATOM      9  C   UNL     1     -21.029 -39.606  22.303  0.00  0.00    +0.000 A 
BRANCH   7  17
ATOM     17  O   UNL     1     -20.767 -38.186  19.013  0.00  0.00    +0.000 OA
ATOM     18  H   UNL     1     -20.317 -38.580  18.248  0.00  0.00    +0.000 HD
ENDBRANCH   7  17
ENDBRANCH   2   4
BRANCH   2   1
ATOM      1  C   UNL     1     -18.423 -41.770  23.622  0.00  0.00    +0.000 C 
ATOM     10  C   UNL     1     -17.949 -42.268  24.784  0.00  0.00    +0.000 C 
BRANCH  10  11
ATOM     11  C   UNL     1     -16.733 -42.810  25.022  0.00  0.00    +0.000 A 
ATOM     12  C   UNL     1     -16.273 -42.838  26.292  0.00  0.00    +0.000 A 
ATOM     13  C   UNL     1     -15.076 -43.359  26.605  0.00  0.00    +0.000 A 
ATOM     14  C   UNL     1     -14.296 -43.875  25.646  0.00  0.00    +0.000 A 
ATOM     15  C   UNL     1     -14.729 -43.860  24.378  0.00  0.00    +0.000 A 
ATOM     16  C   UNL     1     -15.927 -43.336  24.076  0.00  0.00    +0.000 A 
ENDBRANCH  10  11
ENDBRANCH   2   1
TORSDOF 4
ENDMDL
