MODEL 1
REMARK VINA RESULT:     -10.8      0.000      0.000
REMARK  Name = Fragment
REMARK  4 active torsions:
REMARK  status: ('A' for Active; 'I' for Inactive)
REMARK    1  A    between atoms: C_1  and  C_2
REMARK    2  A    between atoms: C_2  and  C_4
REMARK    3  A    between atoms: C_10  and  C_11
REMARK    4  A    between atoms: C_14  and  C_17
REMARK                            x       y       z     vdW  Elec       q    Type
REMARK                         _______ _______ _______ _____ _____    ______ ____
ROOT
ATOM      1  C   UNL     1     -13.722 -45.173  29.832  0.00  0.00    +0.000 C 
ATOM     10  C   UNL     1     -13.486 -45.336  28.513  0.00  0.00    +0.000 C 
ENDROOT
BRANCH  10  11
ATOM     11  C   UNL     1     -14.072 -44.691  27.479  0.00  0.00    +0.000 A 
ATOM     12  C   UNL     1     -14.941 -43.693  27.741  0.00  0.00    +0.000 A 
ATOM     13  C   UNL     1     -15.560 -43.009  26.766  0.00  0.00    +0.000 A 
ATOM     14  C   UNL     1     -15.337 -43.291  25.472  0.00  0.00    +0.000 A 
ATOM     15  C   UNL     1     -14.473 -44.283  25.200  0.00  0.00    +0.000 A 
ATOM     16  C   UNL     1     -13.856 -44.965  26.177  0.00  0.00    +0.000 A 
BRANCH  14  17
ATOM     17  C   UNL     1     -16.015 -42.542  24.349  0.00  0.00    +0.000 C 
ATOM     18  F   UNL     1     -15.344 -41.480  23.934  0.00  0.00    +0.000 F 
ATOM     19  F   UNL     1     -17.217 -42.135  24.728  0.00  0.00    +0.000 F 
ATOM     20  F   UNL     1     -16.190 -43.339  23.305  0.00  0.00    +0.000 F 
ENDBRANCH  14  17
ENDBRANCH  10  11
BRANCH   1   2
ATOM      2  C   UNL     1     -13.084 -45.869  30.825  0.00  0.00    +0.000 C 
ATOM      3  O   UNL     1     -13.681 -46.780  31.370  0.00  0.00    +0.000 OA
BRANCH   2   4
ATOM      4  C   UNL     1     -11.801 -45.557  31.207  0.00  0.00    +0.000 A 
ATOM      5  C   UNL     1     -11.560 -44.381  31.831  0.00  0.00    +0.000 A 
ATOM      6  C   UNL     1     -10.331 -44.015  32.231  0.00  0.00    +0.000 A 
ATOM      7  C   UNL     1      -9.285 -44.823  32.018  0.00  0.00    +0.000 A 
ATOM      8  C   UNL     1      -9.491 -45.994  31.403  0.00  0.00    +0.000 A 
ATOM      9  C   UNL     1     -10.724 -46.350  31.008  0.00  0.00    +0.000 A 
ENDBRANCH   2   4
ENDBRANCH   1   2
TORSDOF 4
ENDMDL
MODEL 2
REMARK VINA RESULT:     -10.6      4.546      7.853
REMARK  Name = Fragment
REMARK  4 active torsions:
REMARK  status: ('A' for Active; 'I' for Inactive)
REMARK    1  A    between atoms: C_1  and  C_2
REMARK    2  A    between atoms: C_2  and  C_4
REMARK    3  A    between atoms: C_10  and  C_11
REMARK    4  A    between atoms: C_14  and  C_17
REMARK                            x       y       z     vdW  Elec       q    Type
REMARK                         _______ _______ _______ _____ _____    ______ ____
ROOT
ATOM      1  C   UNL     1     -15.221 -43.135  25.991  0.00  0.00    +0.000 C 
ATOM     10  C   UNL     1     -14.588 -44.327  25.997  0.00  0.00    +0.000 C 
ENDROOT
BRANCH  10  11
ATOM     11  C   UNL     1     -13.555 -44.714  26.779  0.00  0.00    +0.000 A 
ATOM     12  C   UNL     1     -13.243 -46.025  26.847  0.00  0.00    +0.000 A 
ATOM     13  C   UNL     1     -12.232 -46.483  27.602  0.00  0.00    +0.000 A 
ATOM     14  C   UNL     1     -11.477 -45.645  28.331  0.00  0.00    +0.000 A 
ATOM     15  C   UNL     1     -11.779 -44.337  28.272  0.00  0.00    +0.000 A 
ATOM     16  C   UNL     1     -12.791 -43.883  27.516  0.00  0.00    +0.000 A 
BRANCH  14  17
ATOM     17  C   UNL     1     -10.332 -46.124  29.191  0.00  0.00    +0.000 C 
ATOM     18  F   UNL     1     -10.712 -46.617  30.359  0.00  0.00    +0.000 F 
ATOM     19  F   UNL     1      -9.489 -45.131  29.430  0.00  0.00    +0.000 F 
ATOM     20  F   UNL     1      -9.648 -47.068  28.562  0.00  0.00    +0.000 F 
ENDBRANCH  14  17
ENDBRANCH  10  11
BRANCH   1   2
ATOM      2  C   UNL     1     -16.265 -42.817  25.164  0.00  0.00    +0.000 C 
ATOM      3  O   UNL     1     -16.089 -42.871  23.960  0.00  0.00    +0.000 OA
BRANCH   2   4
ATOM      4  C   UNL     1     -17.490 -42.444  25.666  0.00  0.00    +0.000 A 
ATOM      5  C   UNL     1     -17.695 -42.466  27.003  0.00  0.00    +0.000 A 
ATOM      6  C   UNL     1     -18.866 -42.114  27.559  0.00  0.00    +0.000 A 
ATOM      7  C   UNL     1     -19.887 -41.723  26.788  0.00  0.00    +0.000 A 
ATOM      8  C   UNL     1     -19.715 -41.691  25.460  0.00  0.00    +0.000 A 
ATOM      9  C   UNL     1     -18.540 -42.044  24.915  0.00  0.00    +0.000 A 
ENDBRANCH   2   4
ENDBRANCH   1   2
TORSDOF 4
ENDMDL
MODEL 3
REMARK VINA RESULT:     -10.6      4.611      7.741
REMARK  Name = Fragment
REMARK  4 active torsions:
REMARK  status: ('A' for Active; 'I' for Inactive)
REMARK    1  A    between atoms: C_1  and  C_2
REMARK    2  A    between atoms: C_2  and  C_4
REMARK    3  A    between atoms: C_10  and  C_11
REMARK    4  A    between atoms: C_14  and  C_17
REMARK                            x       y       z     vdW  Elec       q    Type
REMARK                         _______ _______ _______ _____ _____    ______ ____
ROOT
ATOM      1  C   UNL     1     -14.314 -43.517  25.774  0.00  0.00    +0.000 C 
ATOM     10  C   UNL     1     -14.102 -44.731  26.325  0.00  0.00    +0.000 C 
ENDROOT
BRANCH  10  11
ATOM     11  C   UNL     1     -13.105 -45.101  27.160  0.00  0.00    +0.000 A 
ATOM     12  C   UNL     1     -12.558 -44.174  27.974  0.00  0.00    +0.000 A 
ATOM     13  C   UNL     1     -11.565 -44.468  28.829  0.00  0.00    +0.000 A 
ATOM     14  C   UNL     1     -11.068 -45.713  28.911  0.00  0.00    +0.000 A 
ATOM     15  C   UNL     1     -11.605 -46.644  28.105  0.00  0.00    +0.000 A 
ATOM     16  C   UNL     1     -12.598 -46.346  27.252  0.00  0.00    +0.000 A 
BRANCH  14  17
ATOM     17  C   UNL     1      -9.952 -46.080  29.860  0.00  0.00    +0.000 C 
ATOM     18  F   UNL     1      -9.138 -45.075  30.142  0.00  0.00    +0.000 F 
ATOM     19  F   UNL     1      -9.219 -47.059  29.352  0.00  0.00    +0.000 F 
ATOM     20  F   UNL     1     -10.449 -46.525  31.004  0.00  0.00    +0.000 F 
ENDBRANCH  14  17
ENDBRANCH  10  11
BRANCH   1   2
ATOM      2  C   UNL     1     -15.353 -43.219  24.932  0.00  0.00    +0.000 C 
ATOM      3  O   UNL     1     -15.176 -43.324  23.732  0.00  0.00    +0.000 OA
BRANCH   2   4
ATOM      4  C   UNL     1     -16.573 -42.811  25.418  0.00  0.00    +0.000 A 
ATOM      5  C   UNL     1     -16.754 -42.699  26.754  0.00  0.00    +0.000 A 
ATOM      6  C   UNL     1     -17.919 -42.305  27.293  0.00  0.00    +0.000 A 
ATOM      7  C   UNL     1     -18.960 -42.006  26.506  0.00  0.00    +0.000 A 
ATOM      8  C   UNL     1     -18.812 -42.108  25.179  0.00  0.00    +0.000 A 
ATOM      9  C   UNL     1     -17.642 -42.502  24.650  0.00  0.00    +0.000 A 
ENDBRANCH   2   4
ENDBRANCH   1   2
TORSDOF 4
ENDMDL
MODEL 4
REMARK VINA RESULT:      -9.7      3.954      5.709
REMARK  Name = Fragment
REMARK  4 active torsions:
REMARK  status: ('A' for Active; 'I' for Inactive)
REMARK    1  A    between atoms: C_1  and  C_2
REMARK    2  A    between atoms: C_2  and  C_4
REMARK    3  A    between atoms: C_10  and  C_11
REMARK    4  A    between atoms: C_14  and  C_17
REMARK                            x       y       z     vdW  Elec       q    Type
REMARK                         _______ _______ _______ _____ _____    ______ ____
ROOT
ATOM      1  C   UNL     1     -15.593 -42.675  25.846  0.00  0.00    +0.000 C 
ATOM     10  C   UNL     1     -16.722 -42.833  25.122  0.00  0.00    +0.000 C 
ENDROOT
BRANCH  10  11
ATOM     11  C   UNL     1     -17.957 -42.355  25.396  0.00  0.00    +0.000 A 
ATOM     12  C   UNL     1     -18.349 -42.261  26.683  0.00  0.00    +0.000 A 
ATOM     13  C   UNL     1     -19.560 -41.796  27.031  0.00  0.00    +0.000 A 
ATOM     14  C   UNL     1     -20.443 -41.400  26.099  0.00  0.00    +0.000 A 
ATOM     15  C   UNL     1     -20.063 -41.489  24.814  0.00  0.00    +0.000 A 
ATOM     16  C   UNL     1     -18.851 -41.955  24.471  0.00  0.00    +0.000 A 
BRANCH  14  17
ATOM     17  C   UNL     1     -21.813 -40.872  26.453  0.00  0.00    +0.000 C 
ATOM     18  F   UNL     1     -21.845 -40.184  27.584  0.00  0.00    +0.000 F 
ATOM     19  F   UNL     1     -22.676 -41.870  26.566  0.00  0.00    +0.000 F 
ATOM     20  F   UNL     1     -22.264 -40.081  25.490  0.00  0.00    +0.000 F 
ENDBRANCH  14  17
ENDBRANCH  10  11
BRANCH   1   2
ATOM      2  C   UNL     1     -14.373 -43.194  25.500  0.00  0.00    +0.000 C 
ATOM      3  O   UNL     1     -13.989 -43.058  24.352  0.00  0.00    +0.000 OA
BRANCH   2   4
ATOM      4  C   UNL     1     -13.589 -43.854  26.417  0.00  0.00    +0.000 A 
ATOM      5  C   UNL     1     -12.611 -43.180  27.064  0.00  0.00    +0.000 A 
ATOM      6  C   UNL     1     -11.811 -43.764  27.971  0.00  0.00    +0.000 A 
ATOM      7  C   UNL     1     -11.962 -45.061  28.266  0.00  0.00    +0.000 A 
ATOM      8  C   UNL     1     -12.921 -45.756  27.642  0.00  0.00    +0.000 A 
ATOM      9  C   UNL     1     -13.716 -45.161  26.737  0.00  0.00    +0.000 A 
ENDBRANCH   2   4
ENDBRANCH   1   2
TORSDOF 4
ENDMDL
MODEL 5
REMARK VINA RESULT:      -9.6      4.740      8.656
REMARK  Name = Fragment
REMARK  4 active torsions:
REMARK  status: ('A' for Active; 'I' for Inactive)
REMARK    1  A    between atoms: C_1  and  C_2
REMARK    2  A    between atoms: C_2  and  C_4
REMARK    3  A    between atoms: C_10  and  C_11
REMARK    4  A    between atoms: C_14  and  C_17
REMARK                            x       y       z     vdW  Elec       q    Type
REMARK                         _______ _______ _______ _____ _____    ______ ____
ROOT
ATOM      1  C   UNL     1     -17.933 -42.679  24.907  0.00  0.00    +0.000 C 
ATOM     10  C   UNL     1     -16.593 -42.514  24.936  0.00  0.00    +0.000 C 
ENDROOT
BRANCH  10  11
ATOM     11  C   UNL     1     -15.672 -43.311  25.523  0.00  0.00    +0.000 A 
ATOM     12  C   UNL     1     -15.543 -43.280  26.866  0.00  0.00    +0.000 A 
ATOM     13  C   UNL     1     -14.650 -44.043  27.517  0.00  0.00    +0.000 A 
ATOM     14  C   UNL     1     -13.837 -44.879  26.851  0.00  0.00    +0.000 A 
ATOM     15  C   UNL     1     -13.956 -44.917  25.514  0.00  0.00    +0.000 A 
ATOM     16  C   UNL     1     -14.850 -44.153  24.866  0.00  0.00    +0.000 A 
BRANCH  14  17
ATOM     17  C   UNL     1     -12.821 -45.751  27.551  0.00  0.00    +0.000 C 
ATOM     18  F   UNL     1     -11.707 -45.115  27.878  0.00  0.00    +0.000 F 
ATOM     19  F   UNL     1     -12.487 -46.775  26.781  0.00  0.00    +0.000 F 
ATOM     20  F   UNL     1     -13.336 -46.256  28.662  0.00  0.00    +0.000 F 
ENDBRANCH  14  17
ENDBRANCH  10  11
BRANCH   1   2
ATOM      2  C   UNL     1     -18.805 -41.822  24.288  0.00  0.00    +0.000 C 
ATOM      3  O   UNL     1     -18.543 -41.443  23.161  0.00  0.00    +0.000 OA
BRANCH   2   4
ATOM      4  C   UNL     1     -19.952 -41.393  24.913  0.00  0.00    +0.000 A 
ATOM      5  C   UNL     1     -20.054 -41.492  26.258  0.00  0.00    +0.000 A 
ATOM      6  C   UNL     1     -21.145 -41.091  26.930  0.00  0.00    +0.000 A 
ATOM      7  C   UNL     1     -22.189 -40.571  26.272  0.00  0.00    +0.000 A 
ATOM      8  C   UNL     1     -22.118 -40.460  24.940  0.00  0.00    +0.000 A 
ATOM      9  C   UNL     1     -21.022 -40.863  24.278  0.00  0.00    +0.000 A 
ENDBRANCH   2   4
ENDBRANCH   1   2
TORSDOF 4
ENDMDL
MODEL 6
REMARK VINA RESULT:      -9.3      4.724      9.478
REMARK  Name = Fragment
REMARK  4 active torsions:
REMARK  status: ('A' for Active; 'I' for Inactive)
REMARK    1  A    between atoms: C_1  and  C_2
REMARK    2  A    between atoms: C_2  and  C_4
REMARK    3  A    between atoms: C_10  and  C_11
REMARK    4  A    between atoms: C_14  and  C_17
REMARK                            x       y       z     vdW  Elec       q    Type
REMARK                         _______ _______ _______ _____ _____    ______ ____
ROOT
ATOM      1  C   UNL     1     -16.988 -41.849  23.255  0.00  0.00    +0.000 C 
ATOM     10  C   UNL     1     -15.678 -41.915  23.576  0.00  0.00    +0.000 C 
ENDROOT
BRANCH  10  11
ATOM     11  C   UNL     1     -15.090 -42.704  24.504  0.00  0.00    +0.000 A 
ATOM     12  C   UNL     1     -14.814 -43.986  24.190  0.00  0.00    +0.000 A 
ATOM     13  C   UNL     1     -14.231 -44.827  25.059  0.00  0.00    +0.000 A 
ATOM     14  C   UNL     1     -13.894 -44.423  26.295  0.00  0.00    +0.000 A 
ATOM     15  C   UNL     1     -14.165 -43.147  26.618  0.00  0.00    +0.000 A 
ATOM     16  C   UNL     1     -14.747 -42.309  25.746  0.00  0.00    +0.000 A 
BRANCH  14  17
ATOM     17  C   UNL     1     -13.238 -45.340  27.298  0.00  0.00    +0.000 C 
ATOM     18  F   UNL     1     -12.033 -44.944  27.677  0.00  0.00    +0.000 F 
ATOM     19  F   UNL     1     -13.120 -46.561  26.797  0.00  0.00    +0.000 F 
ATOM     20  F   UNL     1     -13.986 -45.442  28.387  0.00  0.00    +0.000 F 
ENDBRANCH  14  17
ENDBRANCH  10  11
BRANCH   1   2
ATOM      2  C   UNL     1     -17.509 -41.019  22.297  0.00  0.00    +0.000 C 
ATOM      3  O   UNL     1     -16.775 -40.628  21.408  0.00  0.00    +0.000 OA
BRANCH   2   4
ATOM      4  C   UNL     1     -18.827 -40.630  22.328  0.00  0.00    +0.000 A 
ATOM      5  C   UNL     1     -19.622 -41.051  23.338  0.00  0.00    +0.000 A 
ATOM      6  C   UNL     1     -20.918 -40.708  23.428  0.00  0.00    +0.000 A 
ATOM      7  C   UNL     1     -21.472 -39.920  22.497  0.00  0.00    +0.000 A 
ATOM      8  C   UNL     1     -20.711 -39.487  21.485  0.00  0.00    +0.000 A 
ATOM      9  C   UNL     1     -19.416 -39.836  21.405  0.00  0.00    +0.000 A 
ENDBRANCH   2   4
ENDBRANCH   1   2
TORSDOF 4
ENDMDL
MODEL 7
REMARK VINA RESULT:      -8.6      5.806     10.961
REMARK  Name = Fragment
REMARK  4 active torsions:
REMARK  status: ('A' for Active; 'I' for Inactive)
REMARK    1  A    between atoms: C_1  and  C_2
REMARK    2  A    between atoms: C_2  and  C_4
REMARK    3  A    between atoms: C_10  and  C_11
REMARK    4  A    between atoms: C_14  and  C_17
REMARK                            x       y       z     vdW  Elec       q    Type
REMARK                         _______ _______ _______ _____ _____    ______ ____
ROOT
ATOM      1  C   UNL     1     -18.749 -40.476  21.796  0.00  0.00    +0.000 C 
ATOM     10  C   UNL     1     -18.801 -41.622  22.506  0.00  0.00    +0.000 C 
ENDROOT
BRANCH  10  11
ATOM     11  C   UNL     1     -17.973 -42.024  23.497  0.00  0.00    +0.000 A 
ATOM     12  C   UNL     1     -16.689 -42.309  23.198  0.00  0.00    +0.000 A 
ATOM     13  C   UNL     1     -15.809 -42.713  24.129  0.00  0.00    +0.000 A 
ATOM     14  C   UNL     1     -16.175 -42.852  25.414  0.00  0.00    +0.000 A 
ATOM     15  C   UNL     1     -17.452 -42.571  25.723  0.00  0.00    +0.000 A 
ATOM     16  C   UNL     1     -18.329 -42.167  24.789  0.00  0.00    +0.000 A 
BRANCH  14  17
ATOM     17  C   UNL     1     -15.214 -43.304  26.487  0.00  0.00    +0.000 C 
ATOM     18  F   UNL     1     -15.758 -43.388  27.691  0.00  0.00    +0.000 F 
ATOM     19  F   UNL     1     -14.189 -42.469  26.568  0.00  0.00    +0.000 F 
ATOM     20  F   UNL     1     -14.717 -44.495  26.188  0.00  0.00    +0.000 F 
ENDBRANCH  14  17
ENDBRANCH  10  11
BRANCH   1   2
ATOM      2  C   UNL     1     -19.630 -40.140  20.802  0.00  0.00    +0.000 C 
ATOM      3  O   UNL     1     -19.198 -39.970  19.677  0.00  0.00    +0.000 OA
BRANCH   2   4
ATOM      4  C   UNL     1     -20.974 -39.995  21.055  0.00  0.00    +0.000 A 
ATOM      5  C   UNL     1     -21.391 -39.022  21.898  0.00  0.00    +0.000 A 
ATOM      6  C   UNL     1     -22.688 -38.826  22.188  0.00  0.00    +0.000 A 
ATOM      7  C   UNL     1     -23.627 -39.606  21.638  0.00  0.00    +0.000 A 
ATOM      8  C   UNL     1     -23.245 -40.578  20.799  0.00  0.00    +0.000 A 
ATOM      9  C   UNL     1     -21.946 -40.765  20.517  0.00  0.00    +0.000 A 
ENDBRANCH   2   4
ENDBRANCH   1   2
TORSDOF 4
ENDMDL
MODEL 8
REMARK VINA RESULT:      -8.6      5.011     10.004
REMARK  Name = Fragment
REMARK  4 active torsions:
REMARK  status: ('A' for Active; 'I' for Inactive)
REMARK    1  A    between atoms: C_1  and  C_2
REMARK    2  A    between atoms: C_2  and  C_4
REMARK    3  A    between atoms: C_10  and  C_11
REMARK    4  A    between atoms: C_14  and  C_17
REMARK                            x       y       z     vdW  Elec       q    Type
REMARK                         _______ _______ _______ _____ _____    ______ ____
ROOT
ATOM      1  C   UNL     1     -19.821 -41.422  24.613  0.00  0.00    +0.000 C 
ATOM     10  C   UNL     1     -18.664 -41.863  24.077  0.00  0.00    +0.000 C 
ENDROOT
BRANCH  10  11
ATOM     11  C   UNL     1     -17.596 -42.385  24.722  0.00  0.00    +0.000 A 
ATOM     12  C   UNL     1     -16.584 -42.902  23.995  0.00  0.00    +0.000 A 
ATOM     13  C   UNL     1     -15.492 -43.436  24.565  0.00  0.00    +0.000 A 
ATOM     14  C   UNL     1     -15.359 -43.479  25.901  0.00  0.00    +0.000 A 
ATOM     15  C   UNL     1     -16.362 -42.967  26.635  0.00  0.00    +0.000 A 
ATOM     16  C   UNL     1     -17.451 -42.433  26.061  0.00  0.00    +0.000 A 
BRANCH  14  17
ATOM     17  C   UNL     1     -14.146 -44.072  26.578  0.00  0.00    +0.000 C 
ATOM     18  F   UNL     1     -13.785 -45.249  26.091  0.00  0.00    +0.000 F 
ATOM     19  F   UNL     1     -14.371 -44.225  27.874  0.00  0.00    +0.000 F 
ATOM     20  F   UNL     1     -13.110 -43.255  26.461  0.00  0.00    +0.000 F 
ENDBRANCH  14  17
ENDBRANCH  10  11
BRANCH   1   2
ATOM      2  C   UNL     1     -20.863 -40.904  23.889  0.00  0.00    +0.000 C 
ATOM      3  O   UNL     1     -21.943 -40.779  24.436  0.00  0.00    +0.000 OA
BRANCH   2   4
ATOM      4  C   UNL     1     -20.705 -40.531  22.575  0.00  0.00    +0.000 A 
ATOM      5  C   UNL     1     -20.880 -41.449  21.597  0.00  0.00    +0.000 A 
ATOM      6  C   UNL     1     -20.742 -41.152  20.295  0.00  0.00    +0.000 A 
ATOM      7  C   UNL     1     -20.420 -39.907  19.918  0.00  0.00    +0.000 A 
ATOM      8  C   UNL     1     -20.241 -38.976  20.863  0.00  0.00    +0.000 A 
ATOM      9  C   UNL     1     -20.381 -39.285  22.163  0.00  0.00    +0.000 A 
ENDBRANCH   2   4
ENDBRANCH   1   2
TORSDOF 4
ENDMDL
MODEL 9
REMARK VINA RESULT:      -8.4      5.565      9.622
REMARK  Name = Fragment
REMARK  4 active torsions:
REMARK  status: ('A' for Active; 'I' for Inactive)
REMARK    1  A    between atoms: C_1  and  C_2
REMARK    2  A    between atoms: C_2  and  C_4
REMARK    3  A    between atoms: C_10  and  C_11
REMARK    4  A    between atoms: C_14  and  C_17
REMARK                            x       y       z     vdW  Elec       q    Type
REMARK                         _______ _______ _______ _____ _____    ______ ____
ROOT
ATOM      1  C   UNL     1     -20.696 -42.326  26.410  0.00  0.00    +0.000 C 
ATOM     10  C   UNL     1     -19.568 -41.898  27.015  0.00  0.00    +0.000 C 
ENDROOT
BRANCH  10  11
ATOM     11  C   UNL     1     -18.293 -42.255  26.740  0.00  0.00    +0.000 A 
ATOM     12  C   UNL     1     -17.930 -42.440  25.454  0.00  0.00    +0.000 A 
ATOM     13  C   UNL     1     -16.682 -42.794  25.107  0.00  0.00    +0.000 A 
ATOM     14  C   UNL     1     -15.731 -42.982  26.036  0.00  0.00    +0.000 A 
ATOM     15  C   UNL     1     -16.082 -42.800  27.320  0.00  0.00    +0.000 A 
ATOM     16  C   UNL     1     -17.330 -42.446  27.664  0.00  0.00    +0.000 A 
BRANCH  14  17
ATOM     17  C   UNL     1     -14.318 -43.380  25.681  0.00  0.00    +0.000 C 
ATOM     18  F   UNL     1     -13.401 -42.868  26.487  0.00  0.00    +0.000 F 
ATOM     19  F   UNL     1     -14.027 -42.997  24.447  0.00  0.00    +0.000 F 
ATOM     20  F   UNL     1     -14.190 -44.698  25.715  0.00  0.00    +0.000 F 
ENDBRANCH  14  17
ENDBRANCH  10  11
BRANCH   1   2
ATOM      2  C   UNL     1     -21.959 -41.915  26.748  0.00  0.00    +0.000 C 
ATOM      3  O   UNL     1     -22.499 -42.430  27.710  0.00  0.00    +0.000 OA
BRANCH   2   4
ATOM      4  C   UNL     1     -22.614 -40.945  26.025  0.00  0.00    +0.000 A 
ATOM      5  C   UNL     1     -23.383 -40.039  26.673  0.00  0.00    +0.000 A 
ATOM      6  C   UNL     1     -24.049 -39.067  26.029  0.00  0.00    +0.000 A 
ATOM      7  C   UNL     1     -23.969 -38.964  24.696  0.00  0.00    +0.000 A 
ATOM      8  C   UNL     1     -23.215 -39.846  24.027  0.00  0.00    +0.000 A 
ATOM      9  C   UNL     1     -22.554 -40.814  24.682  0.00  0.00    +0.000 A 
ENDBRANCH   2   4
ENDBRANCH   1   2
TORSDOF 4
ENDMDL
MODEL 10
REMARK VINA RESULT:      -8.2     22.698     24.035
REMARK  Name = Fragment
REMARK  4 active torsions:
REMARK  status: ('A' for Active; 'I' for Inactive)
REMARK    1  A    between atoms: C_1  and  C_2
REMARK    2  A    between atoms: C_2  and  C_4
REMARK    3  A    between atoms: C_10  and  C_11
REMARK    4  A    between atoms: C_14  and  C_17
REMARK                            x       y       z     vdW  Elec       q    Type
REMARK                         _______ _______ _______ _____ _____    ______ ____
ROOT
ATOM      1  C   UNL     1       4.477 -55.242  18.270  0.00  0.00    +0.000 C 
ATOM     10  C   UNL     1       3.817 -55.665  17.171  0.00  0.00    +0.000 C 
ENDROOT
BRANCH  10  11
ATOM     11  C   UNL     1       4.257 -55.679  15.893  0.00  0.00    +0.000 A 
ATOM     12  C   UNL     1       5.574 -55.506  15.654  0.00  0.00    +0.000 A 
ATOM     13  C   UNL     1       6.083 -55.508  14.412  0.00  0.00    +0.000 A 
ATOM     14  C   UNL     1       5.293 -55.685  13.340  0.00  0.00    +0.000 A 
ATOM     15  C   UNL     1       3.980 -55.858  13.566  0.00  0.00    +0.000 A 
ATOM     16  C   UNL     1       3.475 -55.855  14.810  0.00  0.00    +0.000 A 
BRANCH  14  17
ATOM     17  C   UNL     1       5.830 -55.693  11.928  0.00  0.00    +0.000 C 
ATOM     18  F   UNL     1       6.108 -54.488  11.456  0.00  0.00    +0.000 F 
ATOM     19  F   UNL     1       4.957 -56.255  11.107  0.00  0.00    +0.000 F 
ATOM     20  F   UNL     1       6.940 -56.414  11.863  0.00  0.00    +0.000 F 
ENDBRANCH  14  17
ENDBRANCH  10  11
BRANCH   1   2
ATOM      2  C   UNL     1       3.959 -55.259  19.539  0.00  0.00    +0.000 C 
ATOM      3  O   UNL     1       4.320 -56.139  20.300  0.00  0.00    +0.000 OA
BRANCH   2   4
ATOM      4  C   UNL     1       3.053 -54.313  19.956  0.00  0.00    +0.000 A 
ATOM      5  C   UNL     1       3.268 -53.011  19.660  0.00  0.00    +0.000 A 
ATOM      6  C   UNL     1       2.424 -52.036  20.037  0.00  0.00    +0.000 A 
ATOM      7  C   UNL     1       1.320 -52.334  20.734  0.00  0.00    +0.000 A 
ATOM      8  C   UNL     1       1.080 -53.614  21.043  0.00  0.00    +0.000 A 
ATOM      9  C   UNL     1       1.931 -54.580  20.660  0.00  0.00    +0.000 A 
ENDBRANCH   2   4
ENDBRANCH   1   2
TORSDOF 4
ENDMDL
