MODEL 1
REMARK VINA RESULT:     -10.2      0.000      0.000
REMARK  Name = Fragment
REMARK  4 active torsions:
REMARK  status: ('A' for Active; 'I' for Inactive)
REMARK    1  A    between atoms: C_1  and  C_2
REMARK    2  A    between atoms: C_2  and  C_4
REMARK    3  A    between atoms: C_7  and  C_17
REMARK    4  A    between atoms: C_10  and  C_11
REMARK                            x       y       z     vdW  Elec       q    Type
REMARK                         _______ _______ _______ _____ _____    ______ ____
ROOT
ATOM      2  C   UNL     1     -15.294 -43.272  25.002  0.00  0.00    +0.000 C 
ATOM      3  O   UNL     1     -15.166 -43.425  23.801  0.00  0.00    +0.000 OA
ENDROOT
BRANCH   2   4
ATOM      4  C   UNL     1     -16.495 -42.845  25.518  0.00  0.00    +0.000 A 
ATOM      5  C   UNL     1     -17.513 -42.546  24.681  0.00  0.00    +0.000 A 
ATOM      6  C   UNL     1     -18.709 -42.124  25.120  0.00  0.00    +0.000 A 
ATOM      7  C   UNL     1     -18.952 -41.977  26.432  0.00  0.00    +0.000 A 
ATOM      8  C   UNL     1     -17.953 -42.269  27.279  0.00  0.00    +0.000 A 
ATOM      9  C   UNL     1     -16.757 -42.691  26.834  0.00  0.00    +0.000 A 
ATOM     17  C   UNL     1     -20.288 -41.504  26.951  0.00  0.00    +0.000 C 
ENDBRANCH   2   4
BRANCH   2   1
ATOM      1  C   UNL     1     -14.223 -43.535  25.814  0.00  0.00    +0.000 C 
ATOM     10  C   UNL     1     -13.994 -44.722  26.415  0.00  0.00    +0.000 C 
BRANCH  10  11
ATOM     11  C   UNL     1     -12.964 -45.058  27.226  0.00  0.00    +0.000 A 
ATOM     12  C   UNL     1     -12.352 -44.082  27.931  0.00  0.00    +0.000 A 
ATOM     13  C   UNL     1     -11.324 -44.337  28.756  0.00  0.00    +0.000 A 
ATOM     14  C   UNL     1     -10.874 -45.591  28.901  0.00  0.00    +0.000 A 
ATOM     15  C   UNL     1     -11.464 -46.578  28.213  0.00  0.00    +0.000 A 
ATOM     16  C   UNL     1     -12.492 -46.310  27.390  0.00  0.00    +0.000 A 
ENDBRANCH  10  11
ENDBRANCH   2   1
TORSDOF 3
ENDMDL
MODEL 2
REMARK VINA RESULT:     -10.1      0.883      1.431
REMARK  Name = Fragment
REMARK  4 active torsions:
REMARK  status: ('A' for Active; 'I' for Inactive)
REMARK    1  A    between atoms: C_1  and  C_2
REMARK    2  A    between atoms: C_2  and  C_4
REMARK    3  A    between atoms: C_7  and  C_17
REMARK    4  A    between atoms: C_10  and  C_11
REMARK                            x       y       z     vdW  Elec       q    Type
REMARK                         _______ _______ _______ _____ _____    ______ ____
ROOT
ATOM      2  C   UNL     1     -14.776 -43.451  25.397  0.00  0.00    +0.000 C 
ATOM      3  O   UNL     1     -14.432 -43.540  24.232  0.00  0.00    +0.000 OA
ENDROOT
BRANCH   2   4
ATOM      4  C   UNL     1     -16.041 -43.010  25.709  0.00  0.00    +0.000 A 
ATOM      5  C   UNL     1     -16.372 -42.787  27.000  0.00  0.00    +0.000 A 
ATOM      6  C   UNL     1     -17.588 -42.357  27.370  0.00  0.00    +0.000 A 
ATOM      7  C   UNL     1     -18.547 -42.124  26.460  0.00  0.00    +0.000 A 
ATOM      8  C   UNL     1     -18.237 -42.340  25.173  0.00  0.00    +0.000 A 
ATOM      9  C   UNL     1     -17.018 -42.771  24.807  0.00  0.00    +0.000 A 
ATOM     17  C   UNL     1     -19.922 -41.640  26.850  0.00  0.00    +0.000 C 
ENDBRANCH   2   4
BRANCH   2   1
ATOM      1  C   UNL     1     -13.881 -43.798  26.373  0.00  0.00    +0.000 C 
ATOM     10  C   UNL     1     -13.723 -45.049  26.853  0.00  0.00    +0.000 C 
BRANCH  10  11
ATOM     11  C   UNL     1     -12.865 -45.469  27.811  0.00  0.00    +0.000 A 
ATOM     12  C   UNL     1     -13.127 -45.152  29.098  0.00  0.00    +0.000 A 
ATOM     13  C   UNL     1     -12.323 -45.533  30.104  0.00  0.00    +0.000 A 
ATOM     14  C   UNL     1     -11.220 -46.251  29.847  0.00  0.00    +0.000 A 
ATOM     15  C   UNL     1     -10.938 -46.579  28.579  0.00  0.00    +0.000 A 
ATOM     16  C   UNL     1     -11.750 -46.192  27.581  0.00  0.00    +0.000 A 
ENDBRANCH  10  11
ENDBRANCH   2   1
TORSDOF 3
ENDMDL
MODEL 3
REMARK VINA RESULT:      -9.7      0.893      6.815
REMARK  Name = Fragment
REMARK  4 active torsions:
REMARK  status: ('A' for Active; 'I' for Inactive)
REMARK    1  A    between atoms: C_1  and  C_2
REMARK    2  A    between atoms: C_2  and  C_4
REMARK    3  A    between atoms: C_7  and  C_17
REMARK    4  A    between atoms: C_10  and  C_11
REMARK                            x       y       z     vdW  Elec       q    Type
REMARK                         _______ _______ _______ _____ _____    ______ ____
ROOT
ATOM      2  C   UNL     1     -14.234 -43.407  25.884  0.00  0.00    +0.000 C 
ATOM      3  O   UNL     1     -13.887 -43.137  24.748  0.00  0.00    +0.000 OA
ENDROOT
BRANCH   2   4
ATOM      4  C   UNL     1     -13.377 -44.082  26.722  0.00  0.00    +0.000 A 
ATOM      5  C   UNL     1     -13.488 -45.423  26.854  0.00  0.00    +0.000 A 
ATOM      6  C   UNL     1     -12.684 -46.138  27.655  0.00  0.00    +0.000 A 
ATOM      7  C   UNL     1     -11.717 -45.546  28.374  0.00  0.00    +0.000 A 
ATOM      8  C   UNL     1     -11.592 -44.215  28.256  0.00  0.00    +0.000 A 
ATOM      9  C   UNL     1     -12.400 -43.503  27.453  0.00  0.00    +0.000 A 
ATOM     17  C   UNL     1     -10.800 -46.329  29.282  0.00  0.00    +0.000 C 
ENDBRANCH   2   4
BRANCH   2   1
ATOM      1  C   UNL     1     -15.483 -43.027  26.296  0.00  0.00    +0.000 C 
ATOM     10  C   UNL     1     -16.510 -42.751  25.464  0.00  0.00    +0.000 C 
BRANCH  10  11
ATOM     11  C   UNL     1     -17.766 -42.371  25.793  0.00  0.00    +0.000 A 
ATOM     12  C   UNL     1     -18.119 -42.362  27.097  0.00  0.00    +0.000 A 
ATOM     13  C   UNL     1     -19.346 -41.997  27.500  0.00  0.00    +0.000 A 
ATOM     14  C   UNL     1     -20.267 -41.627  26.599  0.00  0.00    +0.000 A 
ATOM     15  C   UNL     1     -19.942 -41.627  25.300  0.00  0.00    +0.000 A 
ATOM     16  C   UNL     1     -18.710 -41.994  24.907  0.00  0.00    +0.000 A 
ENDBRANCH  10  11
ENDBRANCH   2   1
TORSDOF 3
ENDMDL
MODEL 4
REMARK VINA RESULT:      -9.3      1.566      2.158
REMARK  Name = Fragment
REMARK  4 active torsions:
REMARK  status: ('A' for Active; 'I' for Inactive)
REMARK    1  A    between atoms: C_1  and  C_2
REMARK    2  A    between atoms: C_2  and  C_4
REMARK    3  A    between atoms: C_7  and  C_17
REMARK    4  A    between atoms: C_10  and  C_11
REMARK                            x       y       z     vdW  Elec       q    Type
REMARK                         _______ _______ _______ _____ _____    ______ ____
ROOT
ATOM      2  C   UNL     1     -16.086 -42.852  27.245  0.00  0.00    +0.000 C 
ATOM      3  O   UNL     1     -16.317 -42.411  28.356  0.00  0.00    +0.000 OA
ENDROOT
BRANCH   2   4
ATOM      4  C   UNL     1     -16.932 -42.563  26.200  0.00  0.00    +0.000 A 
ATOM      5  C   UNL     1     -16.455 -42.555  24.935  0.00  0.00    +0.000 A 
ATOM      6  C   UNL     1     -17.228 -42.281  23.873  0.00  0.00    +0.000 A 
ATOM      7  C   UNL     1     -18.531 -41.997  24.021  0.00  0.00    +0.000 A 
ATOM      8  C   UNL     1     -19.023 -41.999  25.269  0.00  0.00    +0.000 A 
ATOM      9  C   UNL     1     -18.245 -42.274  26.330  0.00  0.00    +0.000 A 
ATOM     17  C   UNL     1     -19.421 -41.686  22.843  0.00  0.00    +0.000 C 
ENDBRANCH   2   4
BRANCH   2   1
ATOM      1  C   UNL     1     -14.975 -43.632  27.068  0.00  0.00    +0.000 C 
ATOM     10  C   UNL     1     -14.343 -44.296  28.060  0.00  0.00    +0.000 C 
BRANCH  10  11
ATOM     11  C   UNL     1     -13.247 -45.083  27.966  0.00  0.00    +0.000 A 
ATOM     12  C   UNL     1     -12.206 -44.843  28.793  0.00  0.00    +0.000 A 
ATOM     13  C   UNL     1     -11.085 -45.580  28.760  0.00  0.00    +0.000 A 
ATOM     14  C   UNL     1     -10.971 -46.591  27.887  0.00  0.00    +0.000 A 
ATOM     15  C   UNL     1     -11.989 -46.850  27.055  0.00  0.00    +0.000 A 
ATOM     16  C   UNL     1     -13.107 -46.105  27.098  0.00  0.00    +0.000 A 
ENDBRANCH  10  11
ENDBRANCH   2   1
TORSDOF 3
ENDMDL
MODEL 5
REMARK VINA RESULT:      -9.3      2.022      3.259
REMARK  Name = Fragment
REMARK  4 active torsions:
REMARK  status: ('A' for Active; 'I' for Inactive)
REMARK    1  A    between atoms: C_1  and  C_2
REMARK    2  A    between atoms: C_2  and  C_4
REMARK    3  A    between atoms: C_7  and  C_17
REMARK    4  A    between atoms: C_10  and  C_11
REMARK                            x       y       z     vdW  Elec       q    Type
REMARK                         _______ _______ _______ _____ _____    ______ ____
ROOT
ATOM      2  C   UNL     1     -14.797 -43.936  27.905  0.00  0.00    +0.000 C 
ATOM      3  O   UNL     1     -15.513 -43.718  28.866  0.00  0.00    +0.000 OA
ENDROOT
BRANCH   2   4
ATOM      4  C   UNL     1     -15.228 -43.614  26.639  0.00  0.00    +0.000 A 
ATOM      5  C   UNL     1     -16.352 -42.880  26.482  0.00  0.00    +0.000 A 
ATOM      6  C   UNL     1     -16.825 -42.533  25.275  0.00  0.00    +0.000 A 
ATOM      7  C   UNL     1     -16.193 -42.906  24.151  0.00  0.00    +0.000 A 
ATOM      8  C   UNL     1     -15.076 -43.636  24.287  0.00  0.00    +0.000 A 
ATOM      9  C   UNL     1     -14.606 -43.981  25.497  0.00  0.00    +0.000 A 
ATOM     17  C   UNL     1     -16.706 -42.529  22.782  0.00  0.00    +0.000 C 
ENDBRANCH   2   4
BRANCH   2   1
ATOM      1  C   UNL     1     -13.569 -44.502  28.117  0.00  0.00    +0.000 C 
ATOM     10  C   UNL     1     -13.154 -45.004  29.300  0.00  0.00    +0.000 C 
BRANCH  10  11
ATOM     11  C   UNL     1     -11.963 -45.576  29.588  0.00  0.00    +0.000 A 
ATOM     12  C   UNL     1     -11.165 -45.958  28.567  0.00  0.00    +0.000 A 
ATOM     13  C   UNL     1      -9.969 -46.531  28.773  0.00  0.00    +0.000 A 
ATOM     14  C   UNL     1      -9.532 -46.742  30.023  0.00  0.00    +0.000 A 
ATOM     15  C   UNL     1     -10.304 -46.373  31.053  0.00  0.00    +0.000 A 
ATOM     16  C   UNL     1     -11.499 -45.799  30.835  0.00  0.00    +0.000 A 
ENDBRANCH  10  11
ENDBRANCH   2   1
TORSDOF 3
ENDMDL
MODEL 6
REMARK VINA RESULT:      -9.3      0.827      6.789
REMARK  Name = Fragment
REMARK  4 active torsions:
REMARK  status: ('A' for Active; 'I' for Inactive)
REMARK    1  A    between atoms: C_1  and  C_2
REMARK    2  A    between atoms: C_2  and  C_4
REMARK    3  A    between atoms: C_7  and  C_17
REMARK    4  A    between atoms: C_10  and  C_11
REMARK                            x       y       z     vdW  Elec       q    Type
REMARK                         _______ _______ _______ _____ _____    ______ ____
ROOT
ATOM      2  C   UNL     1     -14.860 -43.218  24.915  0.00  0.00    +0.000 C 
ATOM      3  O   UNL     1     -14.601 -43.389  23.737  0.00  0.00    +0.000 OA
ENDROOT
BRANCH   2   4
ATOM      4  C   UNL     1     -14.029 -43.731  25.884  0.00  0.00    +0.000 A 
ATOM      5  C   UNL     1     -13.168 -42.913  26.527  0.00  0.00    +0.000 A 
ATOM      6  C   UNL     1     -12.331 -43.351  27.481  0.00  0.00    +0.000 A 
ATOM      7  C   UNL     1     -12.313 -44.643  27.845  0.00  0.00    +0.000 A 
ATOM      8  C   UNL     1     -13.161 -45.470  27.218  0.00  0.00    +0.000 A 
ATOM      9  C   UNL     1     -13.997 -45.027  26.263  0.00  0.00    +0.000 A 
ATOM     17  C   UNL     1     -11.382 -45.159  28.915  0.00  0.00    +0.000 C 
ENDBRANCH   2   4
BRANCH   2   1
ATOM      1  C   UNL     1     -15.986 -42.512  25.242  0.00  0.00    +0.000 C 
ATOM     10  C   UNL     1     -17.247 -42.965  25.075  0.00  0.00    +0.000 C 
BRANCH  10  11
ATOM     11  C   UNL     1     -18.404 -42.330  25.372  0.00  0.00    +0.000 A 
ATOM     12  C   UNL     1     -18.730 -42.154  26.671  0.00  0.00    +0.000 A 
ATOM     13  C   UNL     1     -19.861 -41.534  27.044  0.00  0.00    +0.000 A 
ATOM     14  C   UNL     1     -20.708 -41.067  26.117  0.00  0.00    +0.000 A 
ATOM     15  C   UNL     1     -20.408 -41.229  24.821  0.00  0.00    +0.000 A 
ATOM     16  C   UNL     1     -19.274 -41.851  24.460  0.00  0.00    +0.000 A 
ENDBRANCH  10  11
ENDBRANCH   2   1
TORSDOF 3
ENDMDL
MODEL 7
REMARK VINA RESULT:      -8.5      1.741      6.965
REMARK  Name = Fragment
REMARK  4 active torsions:
REMARK  status: ('A' for Active; 'I' for Inactive)
REMARK    1  A    between atoms: C_1  and  C_2
REMARK    2  A    between atoms: C_2  and  C_4
REMARK    3  A    between atoms: C_7  and  C_17
REMARK    4  A    between atoms: C_10  and  C_11
REMARK                            x       y       z     vdW  Elec       q    Type
REMARK                         _______ _______ _______ _____ _____    ______ ____
ROOT
ATOM      2  C   UNL     1     -15.370 -43.343  24.515  0.00  0.00    +0.000 C 
ATOM      3  O   UNL     1     -14.809 -43.760  23.518  0.00  0.00    +0.000 OA
ENDROOT
BRANCH   2   4
ATOM      4  C   UNL     1     -14.959 -43.757  25.760  0.00  0.00    +0.000 A 
ATOM      5  C   UNL     1     -14.017 -44.721  25.867  0.00  0.00    +0.000 A 
ATOM      6  C   UNL     1     -13.574 -45.169  27.052  0.00  0.00    +0.000 A 
ATOM      7  C   UNL     1     -14.053 -44.672  28.203  0.00  0.00    +0.000 A 
ATOM      8  C   UNL     1     -14.989 -43.715  28.117  0.00  0.00    +0.000 A 
ATOM      9  C   UNL     1     -15.430 -43.269  26.929  0.00  0.00    +0.000 A 
ATOM     17  C   UNL     1     -13.571 -45.160  29.548  0.00  0.00    +0.000 C 
ENDBRANCH   2   4
BRANCH   2   1
ATOM      1  C   UNL     1     -16.407 -42.461  24.363  0.00  0.00    +0.000 C 
ATOM     10  C   UNL     1     -17.700 -42.822  24.214  0.00  0.00    +0.000 C 
BRANCH  10  11
ATOM     11  C   UNL     1     -18.775 -42.016  24.060  0.00  0.00    +0.000 A 
ATOM     12  C   UNL     1     -18.967 -41.417  22.864  0.00  0.00    +0.000 A 
ATOM     13  C   UNL     1     -20.010 -40.603  22.634  0.00  0.00    +0.000 A 
ATOM     14  C   UNL     1     -20.901 -40.363  23.606  0.00  0.00    +0.000 A 
ATOM     15  C   UNL     1     -20.734 -40.945  24.801  0.00  0.00    +0.000 A 
ATOM     16  C   UNL     1     -19.686 -41.758  25.020  0.00  0.00    +0.000 A 
ENDBRANCH  10  11
ENDBRANCH   2   1
TORSDOF 3
ENDMDL
MODEL 8
REMARK VINA RESULT:      -8.5      3.443      8.085
REMARK  Name = Fragment
REMARK  4 active torsions:
REMARK  status: ('A' for Active; 'I' for Inactive)
REMARK    1  A    between atoms: C_1  and  C_2
REMARK    2  A    between atoms: C_2  and  C_4
REMARK    3  A    between atoms: C_7  and  C_17
REMARK    4  A    between atoms: C_10  and  C_11
REMARK                            x       y       z     vdW  Elec       q    Type
REMARK                         _______ _______ _______ _____ _____    ______ ____
ROOT
ATOM      2  C   UNL     1     -17.697 -42.506  23.818  0.00  0.00    +0.000 C 
ATOM      3  O   UNL     1     -16.941 -43.148  23.111  0.00  0.00    +0.000 OA
ENDROOT
BRANCH   2   4
ATOM      4  C   UNL     1     -17.539 -42.519  25.185  0.00  0.00    +0.000 A 
ATOM      5  C   UNL     1     -16.322 -42.772  25.714  0.00  0.00    +0.000 A 
ATOM      6  C   UNL     1     -16.101 -42.799  27.038  0.00  0.00    +0.000 A 
ATOM      7  C   UNL     1     -17.096 -42.571  27.910  0.00  0.00    +0.000 A 
ATOM      8  C   UNL     1     -18.312 -42.318  27.403  0.00  0.00    +0.000 A 
ATOM      9  C   UNL     1     -18.528 -42.292  26.077  0.00  0.00    +0.000 A 
ATOM     17  C   UNL     1     -16.874 -42.595  29.402  0.00  0.00    +0.000 C 
ENDBRANCH   2   4
BRANCH   2   1
ATOM      1  C   UNL     1     -18.695 -41.782  23.223  0.00  0.00    +0.000 C 
ATOM     10  C   UNL     1     -18.502 -40.897  22.222  0.00  0.00    +0.000 C 
BRANCH  10  11
ATOM     11  C   UNL     1     -19.431 -40.147  21.585  0.00  0.00    +0.000 A 
ATOM     12  C   UNL     1     -20.438 -39.612  22.310  0.00  0.00    +0.000 A 
ATOM     13  C   UNL     1     -21.396 -38.857  21.749  0.00  0.00    +0.000 A 
ATOM     14  C   UNL     1     -21.375 -38.614  20.431  0.00  0.00    +0.000 A 
ATOM     15  C   UNL     1     -20.387 -39.134  19.690  0.00  0.00    +0.000 A 
ATOM     16  C   UNL     1     -19.433 -39.888  20.262  0.00  0.00    +0.000 A 
ENDBRANCH  10  11
ENDBRANCH   2   1
TORSDOF 3
ENDMDL
MODEL 9
REMARK VINA RESULT:      -8.2      2.210      4.247
REMARK  Name = Fragment
REMARK  4 active torsions:
REMARK  status: ('A' for Active; 'I' for Inactive)
REMARK    1  A    between atoms: C_1  and  C_2
REMARK    2  A    between atoms: C_2  and  C_4
REMARK    3  A    between atoms: C_7  and  C_17
REMARK    4  A    between atoms: C_10  and  C_11
REMARK                            x       y       z     vdW  Elec       q    Type
REMARK                         _______ _______ _______ _____ _____    ______ ____
ROOT
ATOM      2  C   UNL     1     -19.148 -41.827  24.280  0.00  0.00    +0.000 C 
ATOM      3  O   UNL     1     -18.968 -41.569  23.103  0.00  0.00    +0.000 OA
ENDROOT
BRANCH   2   4
ATOM      4  C   UNL     1     -20.258 -41.339  24.929  0.00  0.00    +0.000 A 
ATOM      5  C   UNL     1     -20.310 -41.371  26.280  0.00  0.00    +0.000 A 
ATOM      6  C   UNL     1     -21.364 -40.911  26.972  0.00  0.00    +0.000 A 
ATOM      7  C   UNL     1     -22.430 -40.391  26.345  0.00  0.00    +0.000 A 
ATOM      8  C   UNL     1     -22.397 -40.351  25.005  0.00  0.00    +0.000 A 
ATOM      9  C   UNL     1     -21.340 -40.813  24.316  0.00  0.00    +0.000 A 
ATOM     17  C   UNL     1     -23.627 -39.868  27.102  0.00  0.00    +0.000 C 
ENDBRANCH   2   4
BRANCH   2   1
ATOM      1  C   UNL     1     -18.227 -42.605  24.928  0.00  0.00    +0.000 C 
ATOM     10  C   UNL     1     -16.891 -42.415  24.870  0.00  0.00    +0.000 C 
BRANCH  10  11
ATOM     11  C   UNL     1     -15.922 -43.136  25.478  0.00  0.00    +0.000 A 
ATOM     12  C   UNL     1     -15.115 -43.907  24.716  0.00  0.00    +0.000 A 
ATOM     13  C   UNL     1     -14.131 -44.650  25.247  0.00  0.00    +0.000 A 
ATOM     14  C   UNL     1     -13.924 -44.644  26.571  0.00  0.00    +0.000 A 
ATOM     15  C   UNL     1     -14.711 -43.889  27.349  0.00  0.00    +0.000 A 
ATOM     16  C   UNL     1     -15.693 -43.148  26.806  0.00  0.00    +0.000 A 
ENDBRANCH  10  11
ENDBRANCH   2   1
TORSDOF 3
ENDMDL
MODEL 10
REMARK VINA RESULT:      -8.2      3.435      8.332
REMARK  Name = Fragment
REMARK  4 active torsions:
REMARK  status: ('A' for Active; 'I' for Inactive)
REMARK    1  A    between atoms: C_1  and  C_2
REMARK    2  A    between atoms: C_2  and  C_4
REMARK    3  A    between atoms: C_7  and  C_17
REMARK    4  A    between atoms: C_10  and  C_11
REMARK                            x       y       z     vdW  Elec       q    Type
REMARK                         _______ _______ _______ _____ _____    ______ ____
ROOT
ATOM      2  C   UNL     1     -18.373 -42.635  24.476  0.00  0.00    +0.000 C 
ATOM      3  O   UNL     1     -19.301 -43.159  25.065  0.00  0.00    +0.000 OA
ENDROOT
BRANCH   2   4
ATOM      4  C   UNL     1     -17.089 -42.776  24.949  0.00  0.00    +0.000 A 
ATOM      5  C   UNL     1     -16.852 -42.684  26.276  0.00  0.00    +0.000 A 
ATOM      6  C   UNL     1     -15.624 -42.812  26.801  0.00  0.00    +0.000 A 
ATOM      7  C   UNL     1     -14.557 -43.041  26.019  0.00  0.00    +0.000 A 
ATOM      8  C   UNL     1     -14.773 -43.136  24.698  0.00  0.00    +0.000 A 
ATOM      9  C   UNL     1     -16.005 -43.007  24.177  0.00  0.00    +0.000 A 
ATOM     17  C   UNL     1     -13.166 -43.189  26.585  0.00  0.00    +0.000 C 
ENDBRANCH   2   4
BRANCH   2   1
ATOM      1  C   UNL     1     -18.640 -41.912  23.344  0.00  0.00    +0.000 C 
ATOM     10  C   UNL     1     -19.643 -41.014  23.232  0.00  0.00    +0.000 C 
BRANCH  10  11
ATOM     11  C   UNL     1     -19.969 -40.264  22.154  0.00  0.00    +0.000 A 
ATOM     12  C   UNL     1     -21.042 -39.447  22.236  0.00  0.00    +0.000 A 
ATOM     13  C   UNL     1     -21.429 -38.673  21.210  0.00  0.00    +0.000 A 
ATOM     14  C   UNL     1     -20.744 -38.695  20.058  0.00  0.00    +0.000 A 
ATOM     15  C   UNL     1     -19.675 -39.496  19.951  0.00  0.00    +0.000 A 
ATOM     16  C   UNL     1     -19.298 -40.266  20.985  0.00  0.00    +0.000 A 
ENDBRANCH  10  11
ENDBRANCH   2   1
TORSDOF 3
ENDMDL
