MODEL 1
REMARK VINA RESULT:      -9.8      0.000      0.000
REMARK  Name = Fragment
REMARK  4 active torsions:
REMARK  status: ('A' for Active; 'I' for Inactive)
REMARK    1  A    between atoms: C_1  and  C_2
REMARK    2  A    between atoms: C_2  and  C_4
REMARK    3  A    between atoms: C_7  and  N_17
REMARK    4  A    between atoms: C_10  and  C_11
REMARK                            x       y       z     vdW  Elec       q    Type
REMARK                         _______ _______ _______ _____ _____    ______ ____
ROOT
ATOM      2  C   UNL     1     -13.291 -45.399  29.268  0.00  0.00    +0.000 C 
ATOM      3  O   UNL     1     -14.152 -45.285  30.122  0.00  0.00    +0.000 OA
ENDROOT
BRANCH   2   4
ATOM      4  C   UNL     1     -12.021 -45.791  29.619  0.00  0.00    +0.000 A 
ATOM      5  C   UNL     1     -11.679 -45.851  30.927  0.00  0.00    +0.000 A 
ATOM      6  C   UNL     1     -10.457 -46.225  31.338  0.00  0.00    +0.000 A 
ATOM      7  C   UNL     1      -9.517 -46.560  30.444  0.00  0.00    +0.000 A 
ATOM      8  C   UNL     1      -9.825 -46.511  29.141  0.00  0.00    +0.000 A 
ATOM      9  C   UNL     1     -11.051 -46.135  28.743  0.00  0.00    +0.000 A 
BRANCH   7  17
ATOM     17  N   UNL     1      -8.361 -46.915  30.823  0.00  0.00    +0.000 N 
ATOM     18  H   UNL     1      -8.111 -46.900  31.842  0.00  0.00    +0.000 HD
ATOM     19  H   UNL     1      -7.649 -47.225  30.117  0.00  0.00    +0.000 HD
ENDBRANCH   7  17
ENDBRANCH   2   4
BRANCH   2   1
ATOM      1  C   UNL     1     -13.620 -45.128  27.967  0.00  0.00    +0.000 C 
ATOM     10  C   UNL     1     -14.514 -44.191  27.585  0.00  0.00    +0.000 C 
BRANCH  10  11
ATOM     11  C   UNL     1     -14.891 -43.866  26.327  0.00  0.00    +0.000 A 
ATOM     12  C   UNL     1     -15.845 -42.924  26.160  0.00  0.00    +0.000 A 
ATOM     13  C   UNL     1     -16.271 -42.548  24.943  0.00  0.00    +0.000 A 
ATOM     14  C   UNL     1     -15.748 -43.112  23.845  0.00  0.00    +0.000 A 
ATOM     15  C   UNL     1     -14.801 -44.049  23.984  0.00  0.00    +0.000 A 
ATOM     16  C   UNL     1     -14.382 -44.417  25.206  0.00  0.00    +0.000 A 
ENDBRANCH  10  11
ENDBRANCH   2   1
TORSDOF 4
ENDMDL
MODEL 2
REMARK VINA RESULT:      -9.6      3.851      7.552
REMARK  Name = Fragment
REMARK  4 active torsions:
REMARK  status: ('A' for Active; 'I' for Inactive)
REMARK    1  A    between atoms: C_1  and  C_2
REMARK    2  A    between atoms: C_2  and  C_4
REMARK    3  A    between atoms: C_7  and  N_17
REMARK    4  A    between atoms: C_10  and  C_11
REMARK                            x       y       z     vdW  Elec       q    Type
REMARK                         _______ _______ _______ _____ _____    ______ ____
ROOT
ATOM      2  C   UNL     1     -15.830 -42.877  26.748  0.00  0.00    +0.000 C 
ATOM      3  O   UNL     1     -16.264 -42.359  27.761  0.00  0.00    +0.000 OA
ENDROOT
BRANCH   2   4
ATOM      4  C   UNL     1     -16.540 -42.792  25.572  0.00  0.00    +0.000 A 
ATOM      5  C   UNL     1     -17.851 -42.462  25.608  0.00  0.00    +0.000 A 
ATOM      6  C   UNL     1     -18.602 -42.362  24.499  0.00  0.00    +0.000 A 
ATOM      7  C   UNL     1     -18.061 -42.591  23.295  0.00  0.00    +0.000 A 
ATOM      8  C   UNL     1     -16.764 -42.920  23.227  0.00  0.00    +0.000 A 
ATOM      9  C   UNL     1     -16.024 -43.017  24.344  0.00  0.00    +0.000 A 
BRANCH   7  17
ATOM     17  N   UNL     1     -18.761 -42.499  22.243  0.00  0.00    +0.000 N 
ATOM     18  H   UNL     1     -18.827 -41.586  21.731  0.00  0.00    +0.000 HD
ATOM     19  H   UNL     1     -19.278 -43.337  21.880  0.00  0.00    +0.000 HD
ENDBRANCH   7  17
ENDBRANCH   2   4
BRANCH   2   1
ATOM      1  C   UNL     1     -14.632 -43.536  26.811  0.00  0.00    +0.000 C 
ATOM     10  C   UNL     1     -14.269 -44.366  27.813  0.00  0.00    +0.000 C 
BRANCH  10  11
ATOM     11  C   UNL     1     -13.110 -45.050  27.947  0.00  0.00    +0.000 A 
ATOM     12  C   UNL     1     -12.926 -46.163  27.204  0.00  0.00    +0.000 A 
ATOM     13  C   UNL     1     -11.803 -46.895  27.281  0.00  0.00    +0.000 A 
ATOM     14  C   UNL     1     -10.820 -46.529  28.115  0.00  0.00    +0.000 A 
ATOM     15  C   UNL     1     -10.978 -45.429  28.864  0.00  0.00    +0.000 A 
ATOM     16  C   UNL     1     -12.106 -44.705  28.778  0.00  0.00    +0.000 A 
ENDBRANCH  10  11
ENDBRANCH   2   1
TORSDOF 4
ENDMDL
MODEL 3
REMARK VINA RESULT:      -9.6      3.966      7.411
REMARK  Name = Fragment
REMARK  4 active torsions:
REMARK  status: ('A' for Active; 'I' for Inactive)
REMARK    1  A    between atoms: C_1  and  C_2
REMARK    2  A    between atoms: C_2  and  C_4
REMARK    3  A    between atoms: C_7  and  N_17
REMARK    4  A    between atoms: C_10  and  C_11
REMARK                            x       y       z     vdW  Elec       q    Type
REMARK                         _______ _______ _______ _____ _____    ______ ____
ROOT
ATOM      2  C   UNL     1     -15.436 -43.183  25.094  0.00  0.00    +0.000 C 
ATOM      3  O   UNL     1     -15.371 -43.287  23.882  0.00  0.00    +0.000 OA
ENDROOT
BRANCH   2   4
ATOM      4  C   UNL     1     -16.613 -42.790  25.689  0.00  0.00    +0.000 A 
ATOM      5  C   UNL     1     -17.688 -42.508  24.918  0.00  0.00    +0.000 A 
ATOM      6  C   UNL     1     -18.865 -42.119  25.433  0.00  0.00    +0.000 A 
ATOM      7  C   UNL     1     -19.014 -41.995  26.758  0.00  0.00    +0.000 A 
ATOM      8  C   UNL     1     -17.966 -42.266  27.549  0.00  0.00    +0.000 A 
ATOM      9  C   UNL     1     -16.794 -42.655  27.021  0.00  0.00    +0.000 A 
BRANCH   7  17
ATOM     17  N   UNL     1     -20.121 -41.628  27.254  0.00  0.00    +0.000 N 
ATOM     18  H   UNL     1     -20.769 -41.015  26.702  0.00  0.00    +0.000 HD
ATOM     19  H   UNL     1     -20.393 -41.937  28.219  0.00  0.00    +0.000 HD
ENDBRANCH   7  17
ENDBRANCH   2   4
BRANCH   2   1
ATOM      1  C   UNL     1     -14.322 -43.466  25.837  0.00  0.00    +0.000 C 
ATOM     10  C   UNL     1     -14.085 -44.651  26.439  0.00  0.00    +0.000 C 
BRANCH  10  11
ATOM     11  C   UNL     1     -13.014 -45.006  27.185  0.00  0.00    +0.000 A 
ATOM     12  C   UNL     1     -12.315 -44.036  27.815  0.00  0.00    +0.000 A 
ATOM     13  C   UNL     1     -11.241 -44.310  28.573  0.00  0.00    +0.000 A 
ATOM     14  C   UNL     1     -10.831 -45.576  28.724  0.00  0.00    +0.000 A 
ATOM     15  C   UNL     1     -11.507 -46.556  28.109  0.00  0.00    +0.000 A 
ATOM     16  C   UNL     1     -12.580 -46.271  27.354  0.00  0.00    +0.000 A 
ENDBRANCH  10  11
ENDBRANCH   2   1
TORSDOF 4
ENDMDL
MODEL 4
REMARK VINA RESULT:      -9.6      4.043      7.552
REMARK  Name = Fragment
REMARK  4 active torsions:
REMARK  status: ('A' for Active; 'I' for Inactive)
REMARK    1  A    between atoms: C_1  and  C_2
REMARK    2  A    between atoms: C_2  and  C_4
REMARK    3  A    between atoms: C_7  and  N_17
REMARK    4  A    between atoms: C_10  and  C_11
REMARK                            x       y       z     vdW  Elec       q    Type
REMARK                         _______ _______ _______ _____ _____    ______ ____
ROOT
ATOM      2  C   UNL     1     -15.659 -43.186  25.260  0.00  0.00    +0.000 C 
ATOM      3  O   UNL     1     -15.590 -43.396  24.062  0.00  0.00    +0.000 OA
ENDROOT
BRANCH   2   4
ATOM      4  C   UNL     1     -16.839 -42.750  25.816  0.00  0.00    +0.000 A 
ATOM      5  C   UNL     1     -17.879 -42.434  25.010  0.00  0.00    +0.000 A 
ATOM      6  C   UNL     1     -19.058 -42.004  25.486  0.00  0.00    +0.000 A 
ATOM      7  C   UNL     1     -19.244 -41.870  26.806  0.00  0.00    +0.000 A 
ATOM      8  C   UNL     1     -18.233 -42.175  27.630  0.00  0.00    +0.000 A 
ATOM      9  C   UNL     1     -17.058 -42.605  27.141  0.00  0.00    +0.000 A 
BRANCH   7  17
ATOM     17  N   UNL     1     -20.353 -41.464  27.265  0.00  0.00    +0.000 N 
ATOM     18  H   UNL     1     -20.452 -40.479  27.615  0.00  0.00    +0.000 HD
ATOM     19  H   UNL     1     -21.178 -42.112  27.298  0.00  0.00    +0.000 HD
ENDBRANCH   7  17
ENDBRANCH   2   4
BRANCH   2   1
ATOM      1  C   UNL     1     -14.543 -43.392  26.026  0.00  0.00    +0.000 C 
ATOM     10  C   UNL     1     -14.126 -44.602  26.458  0.00  0.00    +0.000 C 
BRANCH  10  11
ATOM     11  C   UNL     1     -13.041 -44.886  27.214  0.00  0.00    +0.000 A 
ATOM     12  C   UNL     1     -12.660 -46.176  27.340  0.00  0.00    +0.000 A 
ATOM     13  C   UNL     1     -11.594 -46.536  28.073  0.00  0.00    +0.000 A 
ATOM     14  C   UNL     1     -10.870 -45.605  28.708  0.00  0.00    +0.000 A 
ATOM     15  C   UNL     1     -11.228 -44.318  28.599  0.00  0.00    +0.000 A 
ATOM     16  C   UNL     1     -12.295 -43.969  27.863  0.00  0.00    +0.000 A 
ENDBRANCH  10  11
ENDBRANCH   2   1
TORSDOF 4
ENDMDL
MODEL 5
REMARK VINA RESULT:      -9.1      2.631      3.974
REMARK  Name = Fragment
REMARK  4 active torsions:
REMARK  status: ('A' for Active; 'I' for Inactive)
REMARK    1  A    between atoms: C_1  and  C_2
REMARK    2  A    between atoms: C_2  and  C_4
REMARK    3  A    between atoms: C_7  and  N_17
REMARK    4  A    between atoms: C_10  and  C_11
REMARK                            x       y       z     vdW  Elec       q    Type
REMARK                         _______ _______ _______ _____ _____    ______ ____
ROOT
ATOM      2  C   UNL     1     -14.132 -43.484  25.991  0.00  0.00    +0.000 C 
ATOM      3  O   UNL     1     -13.756 -43.198  24.868  0.00  0.00    +0.000 OA
ENDROOT
BRANCH   2   4
ATOM      4  C   UNL     1     -13.301 -44.178  26.839  0.00  0.00    +0.000 A 
ATOM      5  C   UNL     1     -13.432 -45.519  26.952  0.00  0.00    +0.000 A 
ATOM      6  C   UNL     1     -12.655 -46.257  27.760  0.00  0.00    +0.000 A 
ATOM      7  C   UNL     1     -11.702 -45.672  28.498  0.00  0.00    +0.000 A 
ATOM      8  C   UNL     1     -11.547 -44.344  28.409  0.00  0.00    +0.000 A 
ATOM      9  C   UNL     1     -12.332 -43.617  27.596  0.00  0.00    +0.000 A 
BRANCH   7  17
ATOM     17  N   UNL     1     -10.963 -46.359  29.265  0.00  0.00    +0.000 N 
ATOM     18  H   UNL     1      -9.943 -46.475  29.050  0.00  0.00    +0.000 HD
ATOM     19  H   UNL     1     -11.370 -46.816  30.117  0.00  0.00    +0.000 HD
ENDBRANCH   7  17
ENDBRANCH   2   4
BRANCH   2   1
ATOM      1  C   UNL     1     -15.388 -43.100  26.378  0.00  0.00    +0.000 C 
ATOM     10  C   UNL     1     -16.388 -42.789  25.526  0.00  0.00    +0.000 C 
BRANCH  10  11
ATOM     11  C   UNL     1     -17.648 -42.403  25.829  0.00  0.00    +0.000 A 
ATOM     12  C   UNL     1     -18.021 -42.375  27.127  0.00  0.00    +0.000 A 
ATOM     13  C   UNL     1     -19.255 -42.003  27.507  0.00  0.00    +0.000 A 
ATOM     14  C   UNL     1     -20.161 -41.645  26.586  0.00  0.00    +0.000 A 
ATOM     15  C   UNL     1     -19.815 -41.665  25.292  0.00  0.00    +0.000 A 
ATOM     16  C   UNL     1     -18.579 -42.038  24.924  0.00  0.00    +0.000 A 
ENDBRANCH  10  11
ENDBRANCH   2   1
TORSDOF 4
ENDMDL
MODEL 6
REMARK VINA RESULT:      -9.0      4.389      8.072
REMARK  Name = Fragment
REMARK  4 active torsions:
REMARK  status: ('A' for Active; 'I' for Inactive)
REMARK    1  A    between atoms: C_1  and  C_2
REMARK    2  A    between atoms: C_2  and  C_4
REMARK    3  A    between atoms: C_7  and  N_17
REMARK    4  A    between atoms: C_10  and  C_11
REMARK                            x       y       z     vdW  Elec       q    Type
REMARK                         _______ _______ _______ _____ _____    ______ ____
ROOT
ATOM      2  C   UNL     1     -15.311 -42.429  24.495  0.00  0.00    +0.000 C 
ATOM      3  O   UNL     1     -14.573 -41.965  23.644  0.00  0.00    +0.000 OA
ENDROOT
BRANCH   2   4
ATOM      4  C   UNL     1     -16.674 -42.399  24.315  0.00  0.00    +0.000 A 
ATOM      5  C   UNL     1     -17.179 -42.176  23.080  0.00  0.00    +0.000 A 
ATOM      6  C   UNL     1     -18.498 -42.135  22.834  0.00  0.00    +0.000 A 
ATOM      7  C   UNL     1     -19.375 -42.318  23.829  0.00  0.00    +0.000 A 
ATOM      8  C   UNL     1     -18.906 -42.541  25.065  0.00  0.00    +0.000 A 
ATOM      9  C   UNL     1     -17.584 -42.580  25.297  0.00  0.00    +0.000 A 
BRANCH   7  17
ATOM     17  N   UNL     1     -20.623 -42.280  23.608  0.00  0.00    +0.000 N 
ATOM     18  H   UNL     1     -21.269 -42.934  24.114  0.00  0.00    +0.000 HD
ATOM     19  H   UNL     1     -21.014 -41.595  22.917  0.00  0.00    +0.000 HD
ENDBRANCH   7  17
ENDBRANCH   2   4
BRANCH   2   1
ATOM      1  C   UNL     1     -14.751 -42.972  25.620  0.00  0.00    +0.000 C 
ATOM     10  C   UNL     1     -14.430 -44.277  25.759  0.00  0.00    +0.000 C 
BRANCH  10  11
ATOM     11  C   UNL     1     -13.878 -44.887  26.833  0.00  0.00    +0.000 A 
ATOM     12  C   UNL     1     -14.178 -44.423  28.066  0.00  0.00    +0.000 A 
ATOM     13  C   UNL     1     -13.669 -44.976  29.179  0.00  0.00    +0.000 A 
ATOM     14  C   UNL     1     -12.835 -46.021  29.089  0.00  0.00    +0.000 A 
ATOM     15  C   UNL     1     -12.522 -46.500  27.877  0.00  0.00    +0.000 A 
ATOM     16  C   UNL     1     -13.037 -45.939  26.771  0.00  0.00    +0.000 A 
ENDBRANCH  10  11
ENDBRANCH   2   1
TORSDOF 4
ENDMDL
MODEL 7
REMARK VINA RESULT:      -8.8      4.629      8.044
REMARK  Name = Fragment
REMARK  4 active torsions:
REMARK  status: ('A' for Active; 'I' for Inactive)
REMARK    1  A    between atoms: C_1  and  C_2
REMARK    2  A    between atoms: C_2  and  C_4
REMARK    3  A    between atoms: C_7  and  N_17
REMARK    4  A    between atoms: C_10  and  C_11
REMARK                            x       y       z     vdW  Elec       q    Type
REMARK                         _______ _______ _______ _____ _____    ______ ____
ROOT
ATOM      2  C   UNL     1     -16.813 -42.690  24.962  0.00  0.00    +0.000 C 
ATOM      3  O   UNL     1     -16.538 -42.505  23.790  0.00  0.00    +0.000 OA
ENDROOT
BRANCH   2   4
ATOM      4  C   UNL     1     -18.013 -42.244  25.467  0.00  0.00    +0.000 A 
ATOM      5  C   UNL     1     -18.202 -42.211  26.806  0.00  0.00    +0.000 A 
ATOM      6  C   UNL     1     -19.347 -41.788  27.364  0.00  0.00    +0.000 A 
ATOM      7  C   UNL     1     -20.361 -41.374  26.592  0.00  0.00    +0.000 A 
ATOM      8  C   UNL     1     -20.204 -41.395  25.262  0.00  0.00    +0.000 A 
ATOM      9  C   UNL     1     -19.054 -41.821  24.716  0.00  0.00    +0.000 A 
BRANCH   7  17
ATOM     17  N   UNL     1     -21.446 -40.972  27.110  0.00  0.00    +0.000 N 
ATOM     18  H   UNL     1     -21.623 -39.946  27.234  0.00  0.00    +0.000 HD
ATOM     19  H   UNL     1     -22.172 -41.666  27.416  0.00  0.00    +0.000 HD
ENDBRANCH   7  17
ENDBRANCH   2   4
BRANCH   2   1
ATOM      1  C   UNL     1     -15.907 -43.347  25.752  0.00  0.00    +0.000 C 
ATOM     10  C   UNL     1     -14.591 -43.049  25.813  0.00  0.00    +0.000 C 
BRANCH  10  11
ATOM     11  C   UNL     1     -13.638 -43.647  26.564  0.00  0.00    +0.000 A 
ATOM     12  C   UNL     1     -13.705 -44.984  26.748  0.00  0.00    +0.000 A 
ATOM     13  C   UNL     1     -12.795 -45.649  27.480  0.00  0.00    +0.000 A 
ATOM     14  C   UNL     1     -11.782 -44.987  28.055  0.00  0.00    +0.000 A 
ATOM     15  C   UNL     1     -11.695 -43.660  27.887  0.00  0.00    +0.000 A 
ATOM     16  C   UNL     1     -12.609 -43.006  27.153  0.00  0.00    +0.000 A 
ENDBRANCH  10  11
ENDBRANCH   2   1
TORSDOF 4
ENDMDL
MODEL 8
REMARK VINA RESULT:      -8.2     20.274     22.425
REMARK  Name = Fragment
REMARK  4 active torsions:
REMARK  status: ('A' for Active; 'I' for Inactive)
REMARK    1  A    between atoms: C_1  and  C_2
REMARK    2  A    between atoms: C_2  and  C_4
REMARK    3  A    between atoms: C_7  and  N_17
REMARK    4  A    between atoms: C_10  and  C_11
REMARK                            x       y       z     vdW  Elec       q    Type
REMARK                         _______ _______ _______ _____ _____    ______ ____
ROOT
ATOM      2  C   UNL     1       4.187 -55.710  18.605  0.00  0.00    +0.000 C 
ATOM      3  O   UNL     1       4.702 -56.696  19.101  0.00  0.00    +0.000 OA
ENDROOT
BRANCH   2   4
ATOM      4  C   UNL     1       3.301 -54.955  19.337  0.00  0.00    +0.000 A 
ATOM      5  C   UNL     1       2.299 -55.567  20.008  0.00  0.00    +0.000 A 
ATOM      6  C   UNL     1       1.400 -54.890  20.741  0.00  0.00    +0.000 A 
ATOM      7  C   UNL     1       1.470 -53.556  20.831  0.00  0.00    +0.000 A 
ATOM      8  C   UNL     1       2.452 -52.920  20.177  0.00  0.00    +0.000 A 
ATOM      9  C   UNL     1       3.345 -53.609  19.447  0.00  0.00    +0.000 A 
BRANCH   7  17
ATOM     17  N   UNL     1       0.627 -52.908  21.521  0.00  0.00    +0.000 N 
ATOM     18  H   UNL     1       0.892 -52.534  22.464  0.00  0.00    +0.000 HD
ATOM     19  H   UNL     1      -0.341 -52.744  21.149  0.00  0.00    +0.000 HD
ENDBRANCH   7  17
ENDBRANCH   2   4
BRANCH   2   1
ATOM      1  C   UNL     1       4.511 -55.380  17.316  0.00  0.00    +0.000 C 
ATOM     10  C   UNL     1       3.926 -55.913  16.222  0.00  0.00    +0.000 C 
BRANCH  10  11
ATOM     11  C   UNL     1       4.189 -55.641  14.923  0.00  0.00    +0.000 A 
ATOM     12  C   UNL     1       5.459 -55.345  14.568  0.00  0.00    +0.000 A 
ATOM     13  C   UNL     1       5.798 -55.064  13.300  0.00  0.00    +0.000 A 
ATOM     14  C   UNL     1       4.864 -55.071  12.338  0.00  0.00    +0.000 A 
ATOM     15  C   UNL     1       3.597 -55.361  12.664  0.00  0.00    +0.000 A 
ATOM     16  C   UNL     1       3.270 -55.641  13.936  0.00  0.00    +0.000 A 
ENDBRANCH  10  11
ENDBRANCH   2   1
TORSDOF 4
ENDMDL
MODEL 9
REMARK VINA RESULT:      -8.2      5.423      8.038
REMARK  Name = Fragment
REMARK  4 active torsions:
REMARK  status: ('A' for Active; 'I' for Inactive)
REMARK    1  A    between atoms: C_1  and  C_2
REMARK    2  A    between atoms: C_2  and  C_4
REMARK    3  A    between atoms: C_7  and  N_17
REMARK    4  A    between atoms: C_10  and  C_11
REMARK                            x       y       z     vdW  Elec       q    Type
REMARK                         _______ _______ _______ _____ _____    ______ ____
ROOT
ATOM      2  C   UNL     1     -17.572 -42.591  23.811  0.00  0.00    +0.000 C 
ATOM      3  O   UNL     1     -16.866 -43.243  23.063  0.00  0.00    +0.000 OA
ENDROOT
BRANCH   2   4
ATOM      4  C   UNL     1     -17.323 -42.589  25.164  0.00  0.00    +0.000 A 
ATOM      5  C   UNL     1     -18.330 -42.324  26.027  0.00  0.00    +0.000 A 
ATOM      6  C   UNL     1     -18.156 -42.306  27.358  0.00  0.00    +0.000 A 
ATOM      7  C   UNL     1     -16.950 -42.555  27.884  0.00  0.00    +0.000 A 
ATOM      8  C   UNL     1     -15.931 -42.820  27.055  0.00  0.00    +0.000 A 
ATOM      9  C   UNL     1     -16.118 -42.835  25.725  0.00  0.00    +0.000 A 
BRANCH   7  17
ATOM     17  N   UNL     1     -16.775 -42.540  29.140  0.00  0.00    +0.000 N 
ATOM     18  H   UNL     1     -16.876 -41.644  29.676  0.00  0.00    +0.000 HD
ATOM     19  H   UNL     1     -16.530 -43.426  29.647  0.00  0.00    +0.000 HD
ENDBRANCH   7  17
ENDBRANCH   2   4
BRANCH   2   1
ATOM      1  C   UNL     1     -18.604 -41.870  23.275  0.00  0.00    +0.000 C 
ATOM     10  C   UNL     1     -18.463 -40.933  22.313  0.00  0.00    +0.000 C 
BRANCH  10  11
ATOM     11  C   UNL     1     -19.429 -40.183  21.735  0.00  0.00    +0.000 A 
ATOM     12  C   UNL     1     -19.370 -39.967  20.402  0.00  0.00    +0.000 A 
ATOM     13  C   UNL     1     -20.292 -39.234  19.758  0.00  0.00    +0.000 A 
ATOM     14  C   UNL     1     -21.310 -38.688  20.436  0.00  0.00    +0.000 A 
ATOM     15  C   UNL     1     -21.391 -38.887  21.759  0.00  0.00    +0.000 A 
ATOM     16  C   UNL     1     -20.464 -39.622  22.393  0.00  0.00    +0.000 A 
ENDBRANCH  10  11
ENDBRANCH   2   1
TORSDOF 4
ENDMDL
MODEL 10
REMARK VINA RESULT:      -8.0      6.067     10.071
REMARK  Name = Fragment
REMARK  4 active torsions:
REMARK  status: ('A' for Active; 'I' for Inactive)
REMARK    1  A    between atoms: C_1  and  C_2
REMARK    2  A    between atoms: C_2  and  C_4
REMARK    3  A    between atoms: C_7  and  N_17
REMARK    4  A    between atoms: C_10  and  C_11
REMARK                            x       y       z     vdW  Elec       q    Type
REMARK                         _______ _______ _______ _____ _____    ______ ____
ROOT
ATOM      2  C   UNL     1     -17.433 -41.055  22.204  0.00  0.00    +0.000 C 
ATOM      3  O   UNL     1     -16.659 -40.596  21.383  0.00  0.00    +0.000 OA
ENDROOT
BRANCH   2   4
ATOM      4  C   UNL     1     -18.740 -40.627  22.232  0.00  0.00    +0.000 A 
ATOM      5  C   UNL     1     -19.555 -41.038  23.230  0.00  0.00    +0.000 A 
ATOM      6  C   UNL     1     -20.840 -40.658  23.318  0.00  0.00    +0.000 A 
ATOM      7  C   UNL     1     -21.366 -39.840  22.398  0.00  0.00    +0.000 A 
ATOM      8  C   UNL     1     -20.583 -39.415  21.396  0.00  0.00    +0.000 A 
ATOM      9  C   UNL     1     -19.300 -39.802  21.319  0.00  0.00    +0.000 A 
BRANCH   7  17
ATOM     17  N   UNL     1     -22.577 -39.476  22.472  0.00  0.00    +0.000 N 
ATOM     18  H   UNL     1     -23.235 -39.662  21.676  0.00  0.00    +0.000 HD
ATOM     19  H   UNL     1     -22.927 -38.985  23.331  0.00  0.00    +0.000 HD
ENDBRANCH   7  17
ENDBRANCH   2   4
BRANCH   2   1
ATOM      1  C   UNL     1     -16.972 -41.997  23.084  0.00  0.00    +0.000 C 
ATOM     10  C   UNL     1     -15.755 -41.963  23.669  0.00  0.00    +0.000 C 
BRANCH  10  11
ATOM     11  C   UNL     1     -15.230 -42.851  24.544  0.00  0.00    +0.000 A 
ATOM     12  C   UNL     1     -15.174 -42.515  25.852  0.00  0.00    +0.000 A 
ATOM     13  C   UNL     1     -14.666 -43.343  26.780  0.00  0.00    +0.000 A 
ATOM     14  C   UNL     1     -14.194 -44.544  26.421  0.00  0.00    +0.000 A 
ATOM     15  C   UNL     1     -14.238 -44.901  25.130  0.00  0.00    +0.000 A 
ATOM     16  C   UNL     1     -14.748 -44.065  24.211  0.00  0.00    +0.000 A 
ENDBRANCH  10  11
ENDBRANCH   2   1
TORSDOF 4
ENDMDL
