MODEL 1
REMARK VINA RESULT:     -10.1      0.000      0.000
REMARK  Name = Fragment
REMARK  7 active torsions:
REMARK  status: ('A' for Active; 'I' for Inactive)
REMARK    1  A    between atoms: C_1  and  C_2
REMARK    2  A    between atoms: C_2  and  C_4
REMARK    3  A    between atoms: C_10  and  C_11
REMARK    4  A    between atoms: C_14  and  C_17
REMARK    5  A    between atoms: C_17  and  O_19
REMARK    6  A    between atoms: O_19  and  C_20
REMARK    7  A    between atoms: C_20  and  C_21
REMARK                            x       y       z     vdW  Elec       q    Type
REMARK                         _______ _______ _______ _____ _____    ______ ____
ROOT
ATOM     11  C   UNL     1     -14.451 -44.234  27.414  0.00  0.00    +0.000 A 
ATOM     12  C   UNL     1     -15.305 -43.194  27.312  0.00  0.00    +0.000 A 
ATOM     13  C   UNL     1     -15.698 -42.703  26.126  0.00  0.00    +0.000 A 
ATOM     14  C   UNL     1     -15.251 -43.233  24.973  0.00  0.00    +0.000 A 
ATOM     15  C   UNL     1     -14.399 -44.270  25.061  0.00  0.00    +0.000 A 
ATOM     16  C   UNL     1     -14.011 -44.755  26.252  0.00  0.00    +0.000 A 
ENDROOT
BRANCH  11  10
ATOM      1  C   UNL     1     -13.234 -45.661  28.954  0.00  0.00    +0.000 C 
ATOM     10  C   UNL     1     -14.100 -44.674  28.643  0.00  0.00    +0.000 C 
BRANCH   1   2
ATOM      2  C   UNL     1     -12.930 -46.052  30.231  0.00  0.00    +0.000 C 
ATOM      3  O   UNL     1     -13.719 -46.766  30.823  0.00  0.00    +0.000 OA
BRANCH   2   4
ATOM      4  C   UNL     1     -11.764 -45.655  30.845  0.00  0.00    +0.000 A 
ATOM      5  C   UNL     1     -11.736 -44.490  31.530  0.00  0.00    +0.000 A 
ATOM      6  C   UNL     1     -10.632 -44.045  32.151  0.00  0.00    +0.000 A 
ATOM      7  C   UNL     1      -9.501 -44.759  32.110  0.00  0.00    +0.000 A 
ATOM      8  C   UNL     1      -9.498 -45.918  31.440  0.00  0.00    +0.000 A 
ATOM      9  C   UNL     1     -10.608 -46.354  30.821  0.00  0.00    +0.000 A 
ENDBRANCH   2   4
ENDBRANCH   1   2
ENDBRANCH  11  10
BRANCH  14  17
ATOM     17  C   UNL     1     -15.660 -42.721  23.772  0.00  0.00    +0.000 C 
ATOM     18  O   UNL     1     -15.027 -41.834  23.232  0.00  0.00    +0.000 OA
BRANCH  17  19
ATOM     19  O   UNL     1     -16.792 -43.202  23.159  0.00  0.00    +0.000 OA
BRANCH  19  20
ATOM     20  C   UNL     1     -17.889 -42.344  22.984  0.00  0.00    +0.000 C 
ATOM     21  C   UNL     1     -18.816 -42.486  24.188  0.00  0.00    +0.000 C 
ENDBRANCH  19  20
ENDBRANCH  17  19
ENDBRANCH  14  17
TORSDOF 6
ENDMDL
MODEL 2
REMARK VINA RESULT:     -10.1      1.107      8.500
REMARK  Name = Fragment
REMARK  7 active torsions:
REMARK  status: ('A' for Active; 'I' for Inactive)
REMARK    1  A    between atoms: C_1  and  C_2
REMARK    2  A    between atoms: C_2  and  C_4
REMARK    3  A    between atoms: C_10  and  C_11
REMARK    4  A    between atoms: C_14  and  C_17
REMARK    5  A    between atoms: C_17  and  O_19
REMARK    6  A    between atoms: O_19  and  C_20
REMARK    7  A    between atoms: C_20  and  C_21
REMARK                            x       y       z     vdW  Elec       q    Type
REMARK                         _______ _______ _______ _____ _____    ______ ____
ROOT
ATOM     11  C   UNL     1     -13.821 -44.878  27.216  0.00  0.00    +0.000 A 
ATOM     12  C   UNL     1     -14.326 -44.412  28.377  0.00  0.00    +0.000 A 
ATOM     13  C   UNL     1     -13.932 -44.883  29.571  0.00  0.00    +0.000 A 
ATOM     14  C   UNL     1     -13.005 -45.853  29.661  0.00  0.00    +0.000 A 
ATOM     15  C   UNL     1     -12.492 -46.327  28.510  0.00  0.00    +0.000 A 
ATOM     16  C   UNL     1     -12.893 -45.848  27.321  0.00  0.00    +0.000 A 
ENDROOT
BRANCH  11  10
ATOM      1  C   UNL     1     -14.817 -43.140  25.845  0.00  0.00    +0.000 C 
ATOM     10  C   UNL     1     -14.266 -44.354  26.052  0.00  0.00    +0.000 C 
BRANCH   1   2
ATOM      2  C   UNL     1     -15.246 -42.679  24.628  0.00  0.00    +0.000 C 
ATOM      3  O   UNL     1     -14.412 -42.432  23.775  0.00  0.00    +0.000 OA
BRANCH   2   4
ATOM      4  C   UNL     1     -16.583 -42.495  24.361  0.00  0.00    +0.000 A 
ATOM      5  C   UNL     1     -17.475 -42.525  25.376  0.00  0.00    +0.000 A 
ATOM      6  C   UNL     1     -18.793 -42.353  25.184  0.00  0.00    +0.000 A 
ATOM      7  C   UNL     1     -19.272 -42.141  23.952  0.00  0.00    +0.000 A 
ATOM      8  C   UNL     1     -18.413 -42.106  22.926  0.00  0.00    +0.000 A 
ATOM      9  C   UNL     1     -17.097 -42.280  23.130  0.00  0.00    +0.000 A 
ENDBRANCH   2   4
ENDBRANCH   1   2
ENDBRANCH  11  10
BRANCH  14  17
ATOM     17  C   UNL     1     -12.613 -46.324  30.885  0.00  0.00    +0.000 C 
ATOM     18  O   UNL     1     -13.441 -46.632  31.721  0.00  0.00    +0.000 OA
BRANCH  17  19
ATOM     19  O   UNL     1     -11.278 -46.455  31.187  0.00  0.00    +0.000 OA
BRANCH  19  20
ATOM     20  C   UNL     1     -10.555 -45.319  31.582  0.00  0.00    +0.000 C 
ATOM     21  C   UNL     1      -9.068 -45.660  31.573  0.00  0.00    +0.000 C 
ENDBRANCH  19  20
ENDBRANCH  17  19
ENDBRANCH  14  17
TORSDOF 6
ENDMDL
MODEL 3
REMARK VINA RESULT:     -10.0      1.925      8.377
REMARK  Name = Fragment
REMARK  7 active torsions:
REMARK  status: ('A' for Active; 'I' for Inactive)
REMARK    1  A    between atoms: C_1  and  C_2
REMARK    2  A    between atoms: C_2  and  C_4
REMARK    3  A    between atoms: C_10  and  C_11
REMARK    4  A    between atoms: C_14  and  C_17
REMARK    5  A    between atoms: C_17  and  O_19
REMARK    6  A    between atoms: O_19  and  C_20
REMARK    7  A    between atoms: C_20  and  C_21
REMARK                            x       y       z     vdW  Elec       q    Type
REMARK                         _______ _______ _______ _____ _____    ______ ____
ROOT
ATOM     11  C   UNL     1     -12.884 -45.106  27.548  0.00  0.00    +0.000 A 
ATOM     12  C   UNL     1     -12.712 -44.393  28.679  0.00  0.00    +0.000 A 
ATOM     13  C   UNL     1     -11.862 -44.775  29.646  0.00  0.00    +0.000 A 
ATOM     14  C   UNL     1     -11.137 -45.901  29.525  0.00  0.00    +0.000 A 
ATOM     15  C   UNL     1     -11.299 -46.622  28.401  0.00  0.00    +0.000 A 
ATOM     16  C   UNL     1     -12.152 -46.231  27.439  0.00  0.00    +0.000 A 
ENDROOT
BRANCH  11  10
ATOM      1  C   UNL     1     -14.034 -43.380  26.287  0.00  0.00    +0.000 C 
ATOM     10  C   UNL     1     -13.758 -44.658  26.618  0.00  0.00    +0.000 C 
BRANCH   1   2
ATOM      2  C   UNL     1     -14.938 -43.004  25.329  0.00  0.00    +0.000 C 
ATOM      3  O   UNL     1     -14.556 -42.913  24.175  0.00  0.00    +0.000 OA
BRANCH   2   4
ATOM      4  C   UNL     1     -16.249 -42.733  25.645  0.00  0.00    +0.000 A 
ATOM      5  C   UNL     1     -17.152 -42.567  24.653  0.00  0.00    +0.000 A 
ATOM      6  C   UNL     1     -18.446 -42.301  24.892  0.00  0.00    +0.000 A 
ATOM      7  C   UNL     1     -18.890 -42.189  26.150  0.00  0.00    +0.000 A 
ATOM      8  C   UNL     1     -18.019 -42.347  27.154  0.00  0.00    +0.000 A 
ATOM      9  C   UNL     1     -16.726 -42.613  26.903  0.00  0.00    +0.000 A 
ENDBRANCH   2   4
ENDBRANCH   1   2
ENDBRANCH  11  10
BRANCH  14  17
ATOM     17  C   UNL     1     -10.274 -46.278  30.519  0.00  0.00    +0.000 C 
ATOM     18  O   UNL     1     -10.700 -46.683  31.583  0.00  0.00    +0.000 OA
BRANCH  17  19
ATOM     19  O   UNL     1      -8.915 -46.205  30.327  0.00  0.00    +0.000 OA
BRANCH  19  20
ATOM     20  C   UNL     1      -8.082 -45.984  31.434  0.00  0.00    +0.000 C 
ATOM     21  C   UNL     1      -7.694 -44.509  31.466  0.00  0.00    +0.000 C 
ENDBRANCH  19  20
ENDBRANCH  17  19
ENDBRANCH  14  17
TORSDOF 6
ENDMDL
MODEL 4
REMARK VINA RESULT:      -9.8      1.980      8.288
REMARK  Name = Fragment
REMARK  7 active torsions:
REMARK  status: ('A' for Active; 'I' for Inactive)
REMARK    1  A    between atoms: C_1  and  C_2
REMARK    2  A    between atoms: C_2  and  C_4
REMARK    3  A    between atoms: C_10  and  C_11
REMARK    4  A    between atoms: C_14  and  C_17
REMARK    5  A    between atoms: C_17  and  O_19
REMARK    6  A    between atoms: O_19  and  C_20
REMARK    7  A    between atoms: C_20  and  C_21
REMARK                            x       y       z     vdW  Elec       q    Type
REMARK                         _______ _______ _______ _____ _____    ______ ____
ROOT
ATOM     11  C   UNL     1     -13.586 -44.553  26.717  0.00  0.00    +0.000 A 
ATOM     12  C   UNL     1     -13.359 -45.883  26.737  0.00  0.00    +0.000 A 
ATOM     13  C   UNL     1     -12.445 -46.443  27.546  0.00  0.00    +0.000 A 
ATOM     14  C   UNL     1     -11.707 -45.692  28.382  0.00  0.00    +0.000 A 
ATOM     15  C   UNL     1     -11.922 -44.364  28.372  0.00  0.00    +0.000 A 
ATOM     16  C   UNL     1     -12.839 -43.813  27.559  0.00  0.00    +0.000 A 
ENDROOT
BRANCH  11  10
ATOM      1  C   UNL     1     -15.602 -43.312  26.183  0.00  0.00    +0.000 C 
ATOM     10  C   UNL     1     -14.523 -44.061  25.876  0.00  0.00    +0.000 C 
BRANCH   1   2
ATOM      2  C   UNL     1     -16.511 -42.849  25.269  0.00  0.00    +0.000 C 
ATOM      3  O   UNL     1     -16.196 -42.841  24.092  0.00  0.00    +0.000 OA
BRANCH   2   4
ATOM      4  C   UNL     1     -17.753 -42.401  25.654  0.00  0.00    +0.000 A 
ATOM      5  C   UNL     1     -18.058 -42.337  26.970  0.00  0.00    +0.000 A 
ATOM      6  C   UNL     1     -19.251 -41.909  27.413  0.00  0.00    +0.000 A 
ATOM      7  C   UNL     1     -20.195 -41.524  26.545  0.00  0.00    +0.000 A 
ATOM      8  C   UNL     1     -19.922 -41.576  25.236  0.00  0.00    +0.000 A 
ATOM      9  C   UNL     1     -18.725 -42.006  24.803  0.00  0.00    +0.000 A 
ENDBRANCH   2   4
ENDBRANCH   1   2
ENDBRANCH  11  10
BRANCH  14  17
ATOM     17  C   UNL     1     -10.779 -46.277  29.200  0.00  0.00    +0.000 C 
ATOM     18  O   UNL     1      -9.797 -46.819  28.730  0.00  0.00    +0.000 OA
BRANCH  17  19
ATOM     19  O   UNL     1     -10.943 -46.259  30.565  0.00  0.00    +0.000 OA
BRANCH  19  20
ATOM     20  C   UNL     1      -9.930 -45.711  31.366  0.00  0.00    +0.000 C 
ATOM     21  C   UNL     1     -10.482 -44.477  32.073  0.00  0.00    +0.000 C 
ENDBRANCH  19  20
ENDBRANCH  17  19
ENDBRANCH  14  17
TORSDOF 6
ENDMDL
MODEL 5
REMARK VINA RESULT:      -9.5      1.770      2.865
REMARK  Name = Fragment
REMARK  7 active torsions:
REMARK  status: ('A' for Active; 'I' for Inactive)
REMARK    1  A    between atoms: C_1  and  C_2
REMARK    2  A    between atoms: C_2  and  C_4
REMARK    3  A    between atoms: C_10  and  C_11
REMARK    4  A    between atoms: C_14  and  C_17
REMARK    5  A    between atoms: C_17  and  O_19
REMARK    6  A    between atoms: O_19  and  C_20
REMARK    7  A    between atoms: C_20  and  C_21
REMARK                            x       y       z     vdW  Elec       q    Type
REMARK                         _______ _______ _______ _____ _____    ______ ____
ROOT
ATOM     11  C   UNL     1     -15.903 -42.797  25.874  0.00  0.00    +0.000 A 
ATOM     12  C   UNL     1     -17.237 -42.702  25.697  0.00  0.00    +0.000 A 
ATOM     13  C   UNL     1     -17.777 -42.241  24.557  0.00  0.00    +0.000 A 
ATOM     14  C   UNL     1     -17.002 -41.850  23.531  0.00  0.00    +0.000 A 
ATOM     15  C   UNL     1     -15.669 -41.940  23.695  0.00  0.00    +0.000 A 
ATOM     16  C   UNL     1     -15.137 -42.402  24.839  0.00  0.00    +0.000 A 
ENDROOT
BRANCH  11  10
ATOM      1  C   UNL     1     -14.486 -44.214  27.245  0.00  0.00    +0.000 C 
ATOM     10  C   UNL     1     -15.431 -43.271  27.050  0.00  0.00    +0.000 C 
BRANCH   1   2
ATOM      2  C   UNL     1     -14.060 -44.642  28.474  0.00  0.00    +0.000 C 
ATOM      3  O   UNL     1     -14.779 -44.446  29.438  0.00  0.00    +0.000 OA
BRANCH   2   4
ATOM      4  C   UNL     1     -12.852 -45.281  28.633  0.00  0.00    +0.000 A 
ATOM      5  C   UNL     1     -12.194 -45.176  29.809  0.00  0.00    +0.000 A 
ATOM      6  C   UNL     1     -11.011 -45.773  30.030  0.00  0.00    +0.000 A 
ATOM      7  C   UNL     1     -10.437 -46.507  29.069  0.00  0.00    +0.000 A 
ATOM      8  C   UNL     1     -11.064 -46.629  27.893  0.00  0.00    +0.000 A 
ATOM      9  C   UNL     1     -12.247 -46.027  27.683  0.00  0.00    +0.000 A 
ENDBRANCH   2   4
ENDBRANCH   1   2
ENDBRANCH  11  10
BRANCH  14  17
ATOM     17  C   UNL     1     -17.567 -41.383  22.375  0.00  0.00    +0.000 C 
ATOM     18  O   UNL     1     -16.950 -40.626  21.650  0.00  0.00    +0.000 OA
BRANCH  17  19
ATOM     19  O   UNL     1     -18.839 -41.762  22.019  0.00  0.00    +0.000 OA
BRANCH  19  20
ATOM     20  C   UNL     1     -19.725 -40.793  21.525  0.00  0.00    +0.000 C 
ATOM     21  C   UNL     1     -20.353 -40.059  22.707  0.00  0.00    +0.000 C 
ENDBRANCH  19  20
ENDBRANCH  17  19
ENDBRANCH  14  17
TORSDOF 6
ENDMDL
MODEL 6
REMARK VINA RESULT:      -9.3      1.656      2.549
REMARK  Name = Fragment
REMARK  7 active torsions:
REMARK  status: ('A' for Active; 'I' for Inactive)
REMARK    1  A    between atoms: C_1  and  C_2
REMARK    2  A    between atoms: C_2  and  C_4
REMARK    3  A    between atoms: C_10  and  C_11
REMARK    4  A    between atoms: C_14  and  C_17
REMARK    5  A    between atoms: C_17  and  O_19
REMARK    6  A    between atoms: O_19  and  C_20
REMARK    7  A    between atoms: C_20  and  C_21
REMARK                            x       y       z     vdW  Elec       q    Type
REMARK                         _______ _______ _______ _____ _____    ______ ____
ROOT
ATOM     11  C   UNL     1     -14.587 -43.903  26.153  0.00  0.00    +0.000 A 
ATOM     12  C   UNL     1     -14.712 -43.908  24.809  0.00  0.00    +0.000 A 
ATOM     13  C   UNL     1     -15.731 -43.298  24.182  0.00  0.00    +0.000 A 
ATOM     14  C   UNL     1     -16.682 -42.647  24.875  0.00  0.00    +0.000 A 
ATOM     15  C   UNL     1     -16.569 -42.634  26.216  0.00  0.00    +0.000 A 
ATOM     16  C   UNL     1     -15.546 -43.248  26.835  0.00  0.00    +0.000 A 
ENDROOT
BRANCH  11  10
ATOM      1  C   UNL     1     -13.409 -45.856  26.984  0.00  0.00    +0.000 C 
ATOM     10  C   UNL     1     -13.535 -44.540  26.714  0.00  0.00    +0.000 C 
BRANCH   1   2
ATOM      2  C   UNL     1     -12.305 -46.428  27.558  0.00  0.00    +0.000 C 
ATOM      3  O   UNL     1     -11.597 -47.141  26.869  0.00  0.00    +0.000 OA
BRANCH   2   4
ATOM      4  C   UNL     1     -11.989 -46.213  28.879  0.00  0.00    +0.000 A 
ATOM      5  C   UNL     1     -10.692 -46.098  29.243  0.00  0.00    +0.000 A 
ATOM      6  C   UNL     1     -10.315 -45.888  30.514  0.00  0.00    +0.000 A 
ATOM      7  C   UNL     1     -11.235 -45.783  31.481  0.00  0.00    +0.000 A 
ATOM      8  C   UNL     1     -12.527 -45.892  31.153  0.00  0.00    +0.000 A 
ATOM      9  C   UNL     1     -12.893 -46.103  29.877  0.00  0.00    +0.000 A 
ENDBRANCH   2   4
ENDBRANCH   1   2
ENDBRANCH  11  10
BRANCH  14  17
ATOM     17  C   UNL     1     -17.714 -42.029  24.221  0.00  0.00    +0.000 C 
ATOM     18  O   UNL     1     -17.607 -41.729  23.048  0.00  0.00    +0.000 OA
BRANCH  17  19
ATOM     19  O   UNL     1     -18.884 -41.741  24.882  0.00  0.00    +0.000 OA
BRANCH  19  20
ATOM     20  C   UNL     1     -20.083 -42.302  24.419  0.00  0.00    +0.000 C 
ATOM     21  C   UNL     1     -20.266 -43.670  25.070  0.00  0.00    +0.000 C 
ENDBRANCH  19  20
ENDBRANCH  17  19
ENDBRANCH  14  17
TORSDOF 6
ENDMDL
MODEL 7
REMARK VINA RESULT:      -8.8      1.850      9.140
REMARK  Name = Fragment
REMARK  7 active torsions:
REMARK  status: ('A' for Active; 'I' for Inactive)
REMARK    1  A    between atoms: C_1  and  C_2
REMARK    2  A    between atoms: C_2  and  C_4
REMARK    3  A    between atoms: C_10  and  C_11
REMARK    4  A    between atoms: C_14  and  C_17
REMARK    5  A    between atoms: C_17  and  O_19
REMARK    6  A    between atoms: O_19  and  C_20
REMARK    7  A    between atoms: C_20  and  C_21
REMARK                            x       y       z     vdW  Elec       q    Type
REMARK                         _______ _______ _______ _____ _____    ______ ____
ROOT
ATOM     11  C   UNL     1     -15.289 -43.141  25.573  0.00  0.00    +0.000 A 
ATOM     12  C   UNL     1     -15.675 -42.877  26.838  0.00  0.00    +0.000 A 
ATOM     13  C   UNL     1     -15.192 -43.555  27.892  0.00  0.00    +0.000 A 
ATOM     14  C   UNL     1     -14.292 -44.541  27.728  0.00  0.00    +0.000 A 
ATOM     15  C   UNL     1     -13.898 -44.815  26.471  0.00  0.00    +0.000 A 
ATOM     16  C   UNL     1     -14.387 -44.130  25.423  0.00  0.00    +0.000 A 
ENDROOT
BRANCH  11  10
ATOM      1  C   UNL     1     -17.071 -42.478  24.064  0.00  0.00    +0.000 C 
ATOM     10  C   UNL     1     -15.818 -42.416  24.563  0.00  0.00    +0.000 C 
BRANCH   1   2
ATOM      2  C   UNL     1     -17.535 -41.706  23.032  0.00  0.00    +0.000 C 
ATOM      3  O   UNL     1     -16.791 -41.485  22.093  0.00  0.00    +0.000 OA
BRANCH   2   4
ATOM      4  C   UNL     1     -18.808 -41.184  23.041  0.00  0.00    +0.000 A 
ATOM      5  C   UNL     1     -19.638 -41.475  24.068  0.00  0.00    +0.000 A 
ATOM      6  C   UNL     1     -20.892 -40.999  24.138  0.00  0.00    +0.000 A 
ATOM      7  C   UNL     1     -21.366 -40.205  23.171  0.00  0.00    +0.000 A 
ATOM      8  C   UNL     1     -20.568 -39.899  22.141  0.00  0.00    +0.000 A 
ATOM      9  C   UNL     1     -19.315 -40.381  22.081  0.00  0.00    +0.000 A 
ENDBRANCH   2   4
ENDBRANCH   1   2
ENDBRANCH  11  10
BRANCH  14  17
ATOM     17  C   UNL     1     -13.809 -45.224  28.812  0.00  0.00    +0.000 C 
ATOM     18  O   UNL     1     -14.218 -44.974  29.930  0.00  0.00    +0.000 OA
BRANCH  17  19
ATOM     19  O   UNL     1     -12.855 -46.200  28.651  0.00  0.00    +0.000 OA
BRANCH  19  20
ATOM     20  C   UNL     1     -11.618 -46.055  29.296  0.00  0.00    +0.000 C 
ATOM     21  C   UNL     1     -10.517 -46.531  28.352  0.00  0.00    +0.000 C 
ENDBRANCH  19  20
ENDBRANCH  17  19
ENDBRANCH  14  17
TORSDOF 6
ENDMDL
MODEL 8
REMARK VINA RESULT:      -8.6      2.607      8.815
REMARK  Name = Fragment
REMARK  7 active torsions:
REMARK  status: ('A' for Active; 'I' for Inactive)
REMARK    1  A    between atoms: C_1  and  C_2
REMARK    2  A    between atoms: C_2  and  C_4
REMARK    3  A    between atoms: C_10  and  C_11
REMARK    4  A    between atoms: C_14  and  C_17
REMARK    5  A    between atoms: C_17  and  O_19
REMARK    6  A    between atoms: O_19  and  C_20
REMARK    7  A    between atoms: C_20  and  C_21
REMARK                            x       y       z     vdW  Elec       q    Type
REMARK                         _______ _______ _______ _____ _____    ______ ____
ROOT
ATOM     11  C   UNL     1     -16.152 -42.974  25.472  0.00  0.00    +0.000 A 
ATOM     12  C   UNL     1     -16.042 -42.930  26.815  0.00  0.00    +0.000 A 
ATOM     13  C   UNL     1     -15.050 -43.552  27.474  0.00  0.00    +0.000 A 
ATOM     14  C   UNL     1     -14.113 -44.254  26.814  0.00  0.00    +0.000 A 
ATOM     15  C   UNL     1     -14.211 -44.305  25.473  0.00  0.00    +0.000 A 
ATOM     16  C   UNL     1     -15.206 -43.680  24.823  0.00  0.00    +0.000 A 
ENDROOT
BRANCH  11  10
ATOM      1  C   UNL     1     -18.383 -42.820  24.527  0.00  0.00    +0.000 C 
ATOM     10  C   UNL     1     -17.177 -42.324  24.878  0.00  0.00    +0.000 C 
BRANCH   1   2
ATOM      2  C   UNL     1     -19.375 -42.093  23.925  0.00  0.00    +0.000 C 
ATOM      3  O   UNL     1     -19.349 -41.968  22.714  0.00  0.00    +0.000 OA
BRANCH   2   4
ATOM      4  C   UNL     1     -20.385 -41.511  24.657  0.00  0.00    +0.000 A 
ATOM      5  C   UNL     1     -20.304 -41.496  26.006  0.00  0.00    +0.000 A 
ATOM      6  C   UNL     1     -21.253 -40.945  26.780  0.00  0.00    +0.000 A 
ATOM      7  C   UNL     1     -22.333 -40.382  26.223  0.00  0.00    +0.000 A 
ATOM      8  C   UNL     1     -22.441 -40.381  24.889  0.00  0.00    +0.000 A 
ATOM      9  C   UNL     1     -21.485 -40.935  24.125  0.00  0.00    +0.000 A 
ENDBRANCH   2   4
ENDBRANCH   1   2
ENDBRANCH  11  10
BRANCH  14  17
ATOM     17  C   UNL     1     -13.108 -44.882  27.499  0.00  0.00    +0.000 C 
ATOM     18  O   UNL     1     -12.769 -46.010  27.198  0.00  0.00    +0.000 OA
BRANCH  17  19
ATOM     19  O   UNL     1     -12.469 -44.246  28.537  0.00  0.00    +0.000 OA
BRANCH  19  20
ATOM     20  C   UNL     1     -11.124 -43.876  28.383  0.00  0.00    +0.000 C 
ATOM     21  C   UNL     1     -11.069 -42.457  27.824  0.00  0.00    +0.000 C 
ENDBRANCH  19  20
ENDBRANCH  17  19
ENDBRANCH  14  17
TORSDOF 6
ENDMDL
MODEL 9
REMARK VINA RESULT:      -8.6      2.809      9.484
REMARK  Name = Fragment
REMARK  7 active torsions:
REMARK  status: ('A' for Active; 'I' for Inactive)
REMARK    1  A    between atoms: C_1  and  C_2
REMARK    2  A    between atoms: C_2  and  C_4
REMARK    3  A    between atoms: C_10  and  C_11
REMARK    4  A    between atoms: C_14  and  C_17
REMARK    5  A    between atoms: C_17  and  O_19
REMARK    6  A    between atoms: O_19  and  C_20
REMARK    7  A    between atoms: C_20  and  C_21
REMARK                            x       y       z     vdW  Elec       q    Type
REMARK                         _______ _______ _______ _____ _____    ______ ____
ROOT
ATOM     11  C   UNL     1     -16.779 -42.905  24.923  0.00  0.00    +0.000 A 
ATOM     12  C   UNL     1     -16.664 -42.746  26.257  0.00  0.00    +0.000 A 
ATOM     13  C   UNL     1     -15.521 -43.002  26.914  0.00  0.00    +0.000 A 
ATOM     14  C   UNL     1     -14.428 -43.434  26.261  0.00  0.00    +0.000 A 
ATOM     15  C   UNL     1     -14.529 -43.597  24.929  0.00  0.00    +0.000 A 
ATOM     16  C   UNL     1     -15.677 -43.338  24.281  0.00  0.00    +0.000 A 
ENDROOT
BRANCH  11  10
ATOM      1  C   UNL     1     -18.902 -41.746  24.729  0.00  0.00    +0.000 C 
ATOM     10  C   UNL     1     -17.962 -42.627  24.330  0.00  0.00    +0.000 C 
BRANCH   1   2
ATOM      2  C   UNL     1     -20.082 -41.520  24.071  0.00  0.00    +0.000 C 
ATOM      3  O   UNL     1     -21.097 -42.036  24.505  0.00  0.00    +0.000 OA
BRANCH   2   4
ATOM      4  C   UNL     1     -20.138 -40.731  22.945  0.00  0.00    +0.000 A 
ATOM      5  C   UNL     1     -21.081 -39.767  22.855  0.00  0.00    +0.000 A 
ATOM      6  C   UNL     1     -21.190 -38.962  21.785  0.00  0.00    +0.000 A 
ATOM      7  C   UNL     1     -20.347 -39.096  20.753  0.00  0.00    +0.000 A 
ATOM      8  C   UNL     1     -19.402 -40.042  20.814  0.00  0.00    +0.000 A 
ATOM      9  C   UNL     1     -19.302 -40.841  21.889  0.00  0.00    +0.000 A 
ENDBRANCH   2   4
ENDBRANCH   1   2
ENDBRANCH  11  10
BRANCH  14  17
ATOM     17  C   UNL     1     -13.270 -43.690  26.944  0.00  0.00    +0.000 C 
ATOM     18  O   UNL     1     -12.555 -42.777  27.311  0.00  0.00    +0.000 OA
BRANCH  17  19
ATOM     19  O   UNL     1     -12.898 -44.984  27.224  0.00  0.00    +0.000 OA
BRANCH  19  20
ATOM     20  C   UNL     1     -12.170 -45.244  28.395  0.00  0.00    +0.000 C 
ATOM     21  C   UNL     1     -11.185 -46.376  28.115  0.00  0.00    +0.000 C 
ENDBRANCH  19  20
ENDBRANCH  17  19
ENDBRANCH  14  17
TORSDOF 6
ENDMDL
MODEL 10
REMARK VINA RESULT:      -8.3      2.825      9.427
REMARK  Name = Fragment
REMARK  7 active torsions:
REMARK  status: ('A' for Active; 'I' for Inactive)
REMARK    1  A    between atoms: C_1  and  C_2
REMARK    2  A    between atoms: C_2  and  C_4
REMARK    3  A    between atoms: C_10  and  C_11
REMARK    4  A    between atoms: C_14  and  C_17
REMARK    5  A    between atoms: C_17  and  O_19
REMARK    6  A    between atoms: O_19  and  C_20
REMARK    7  A    between atoms: C_20  and  C_21
REMARK                            x       y       z     vdW  Elec       q    Type
REMARK                         _______ _______ _______ _____ _____    ______ ____
ROOT
ATOM     11  C   UNL     1     -16.639 -42.941  24.682  0.00  0.00    +0.000 A 
ATOM     12  C   UNL     1     -16.684 -42.691  26.006  0.00  0.00    +0.000 A 
ATOM     13  C   UNL     1     -15.668 -42.999  26.829  0.00  0.00    +0.000 A 
ATOM     14  C   UNL     1     -14.549 -43.578  26.361  0.00  0.00    +0.000 A 
ATOM     15  C   UNL     1     -14.491 -43.833  25.041  0.00  0.00    +0.000 A 
ATOM     16  C   UNL     1     -15.512 -43.521  24.226  0.00  0.00    +0.000 A 
ENDROOT
BRANCH  11  10
ATOM      1  C   UNL     1     -18.680 -41.719  24.199  0.00  0.00    +0.000 C 
ATOM     10  C   UNL     1     -17.701 -42.602  23.916  0.00  0.00    +0.000 C 
BRANCH   1   2
ATOM      2  C   UNL     1     -19.729 -41.428  23.367  0.00  0.00    +0.000 C 
ATOM      3  O   UNL     1     -19.594 -41.630  22.173  0.00  0.00    +0.000 OA
BRANCH   2   4
ATOM      4  C   UNL     1     -20.912 -40.920  23.851  0.00  0.00    +0.000 A 
ATOM      5  C   UNL     1     -21.783 -40.336  22.999  0.00  0.00    +0.000 A 
ATOM      6  C   UNL     1     -22.954 -39.820  23.406  0.00  0.00    +0.000 A 
ATOM      7  C   UNL     1     -23.301 -39.872  24.698  0.00  0.00    +0.000 A 
ATOM      8  C   UNL     1     -22.458 -40.445  25.566  0.00  0.00    +0.000 A 
ATOM      9  C   UNL     1     -21.289 -40.957  25.148  0.00  0.00    +0.000 A 
ENDBRANCH   2   4
ENDBRANCH   1   2
ENDBRANCH  11  10
BRANCH  14  17
ATOM     17  C   UNL     1     -13.522 -43.887  27.211  0.00  0.00    +0.000 C 
ATOM     18  O   UNL     1     -12.529 -43.186  27.258  0.00  0.00    +0.000 OA
BRANCH  17  19
ATOM     19  O   UNL     1     -13.598 -44.992  28.024  0.00  0.00    +0.000 OA
BRANCH  19  20
ATOM     20  C   UNL     1     -12.523 -45.892  28.052  0.00  0.00    +0.000 C 
ATOM     21  C   UNL     1     -12.623 -46.811  26.838  0.00  0.00    +0.000 C 
ENDBRANCH  19  20
ENDBRANCH  17  19
ENDBRANCH  14  17
TORSDOF 6
ENDMDL
