MODEL 1
REMARK VINA RESULT:     -10.9      0.000      0.000
REMARK  Name = Fragment
REMARK  4 active torsions:
REMARK  status: ('A' for Active; 'I' for Inactive)
REMARK    1  A    between atoms: C_1  and  C_2
REMARK    2  A    between atoms: C_2  and  C_4
REMARK    3  A    between atoms: C_7  and  C_17
REMARK    4  A    between atoms: C_10  and  C_11
REMARK                            x       y       z     vdW  Elec       q    Type
REMARK                         _______ _______ _______ _____ _____    ______ ____
ROOT
ATOM      2  C   UNL     1     -12.796 -46.206  30.659  0.00  0.00    +0.000 C 
ATOM      3  O   UNL     1     -13.610 -46.755  31.378  0.00  0.00    +0.000 OA
ENDROOT
BRANCH   2   4
ATOM      4  C   UNL     1     -13.171 -45.753  29.416  0.00  0.00    +0.000 A 
ATOM      5  C   UNL     1     -14.104 -44.780  29.311  0.00  0.00    +0.000 A 
ATOM      6  C   UNL     1     -14.513 -44.296  28.127  0.00  0.00    +0.000 A 
ATOM      7  C   UNL     1     -14.009 -44.760  26.973  0.00  0.00    +0.000 A 
ATOM      8  C   UNL     1     -13.082 -45.726  27.061  0.00  0.00    +0.000 A 
ATOM      9  C   UNL     1     -12.674 -46.209  28.247  0.00  0.00    +0.000 A 
BRANCH   7  17
ATOM     17  C   UNL     1     -14.447 -44.238  25.625  0.00  0.00    +0.000 C 
ATOM     18  F   UNL     1     -15.660 -43.712  25.624  0.00  0.00    +0.000 F 
ATOM     19  F   UNL     1     -14.429 -45.213  24.729  0.00  0.00    +0.000 F 
ATOM     20  F   UNL     1     -13.605 -43.308  25.199  0.00  0.00    +0.000 F 
ENDBRANCH   7  17
ENDBRANCH   2   4
BRANCH   2   1
ATOM      1  C   UNL     1     -11.514 -46.053  31.116  0.00  0.00    +0.000 C 
ATOM     10  C   UNL     1     -10.900 -44.863  31.284  0.00  0.00    +0.000 C 
BRANCH  10  11
ATOM     11  C   UNL     1      -9.643 -44.630  31.728  0.00  0.00    +0.000 A 
ATOM     12  C   UNL     1      -8.673 -45.516  31.419  0.00  0.00    +0.000 A 
ATOM     13  C   UNL     1      -7.402 -45.353  31.823  0.00  0.00    +0.000 A 
ATOM     14  C   UNL     1      -7.064 -44.286  32.559  0.00  0.00    +0.000 A 
ATOM     15  C   UNL     1      -8.009 -43.392  32.880  0.00  0.00    +0.000 A 
ATOM     16  C   UNL     1      -9.276 -43.565  32.470  0.00  0.00    +0.000 A 
ENDBRANCH  10  11
ENDBRANCH   2   1
TORSDOF 4
ENDMDL
MODEL 2
REMARK VINA RESULT:     -10.5      4.370      8.488
REMARK  Name = Fragment
REMARK  4 active torsions:
REMARK  status: ('A' for Active; 'I' for Inactive)
REMARK    1  A    between atoms: C_1  and  C_2
REMARK    2  A    between atoms: C_2  and  C_4
REMARK    3  A    between atoms: C_7  and  C_17
REMARK    4  A    between atoms: C_10  and  C_11
REMARK                            x       y       z     vdW  Elec       q    Type
REMARK                         _______ _______ _______ _____ _____    ______ ____
ROOT
ATOM      2  C   UNL     1     -14.433 -43.138  25.557  0.00  0.00    +0.000 C 
ATOM      3  O   UNL     1     -14.121 -42.976  24.392  0.00  0.00    +0.000 OA
ENDROOT
BRANCH   2   4
ATOM      4  C   UNL     1     -13.581 -43.800  26.411  0.00  0.00    +0.000 A 
ATOM      5  C   UNL     1     -13.705 -45.136  26.578  0.00  0.00    +0.000 A 
ATOM      6  C   UNL     1     -12.906 -45.840  27.396  0.00  0.00    +0.000 A 
ATOM      7  C   UNL     1     -11.930 -45.243  28.098  0.00  0.00    +0.000 A 
ATOM      8  C   UNL     1     -11.794 -43.917  27.942  0.00  0.00    +0.000 A 
ATOM      9  C   UNL     1     -12.595 -43.215  27.123  0.00  0.00    +0.000 A 
BRANCH   7  17
ATOM     17  C   UNL     1     -11.013 -46.003  29.026  0.00  0.00    +0.000 C 
ATOM     18  F   UNL     1     -11.637 -46.582  30.038  0.00  0.00    +0.000 F 
ATOM     19  F   UNL     1     -10.095 -45.192  29.529  0.00  0.00    +0.000 F 
ATOM     20  F   UNL     1     -10.367 -46.948  28.359  0.00  0.00    +0.000 F 
ENDBRANCH   7  17
ENDBRANCH   2   4
BRANCH   2   1
ATOM      1  C   UNL     1     -15.638 -42.651  25.989  0.00  0.00    +0.000 C 
ATOM     10  C   UNL     1     -16.797 -42.769  25.307  0.00  0.00    +0.000 C 
BRANCH  10  11
ATOM     11  C   UNL     1     -18.021 -42.317  25.663  0.00  0.00    +0.000 A 
ATOM     12  C   UNL     1     -18.871 -41.916  24.694  0.00  0.00    +0.000 A 
ATOM     13  C   UNL     1     -20.103 -41.457  24.969  0.00  0.00    +0.000 A 
ATOM     14  C   UNL     1     -20.523 -41.384  26.239  0.00  0.00    +0.000 A 
ATOM     15  C   UNL     1     -19.698 -41.775  27.221  0.00  0.00    +0.000 A 
ATOM     16  C   UNL     1     -18.469 -42.233  26.933  0.00  0.00    +0.000 A 
ENDBRANCH  10  11
ENDBRANCH   2   1
TORSDOF 4
ENDMDL
MODEL 3
REMARK VINA RESULT:     -10.4      4.075      5.997
REMARK  Name = Fragment
REMARK  4 active torsions:
REMARK  status: ('A' for Active; 'I' for Inactive)
REMARK    1  A    between atoms: C_1  and  C_2
REMARK    2  A    between atoms: C_2  and  C_4
REMARK    3  A    between atoms: C_7  and  C_17
REMARK    4  A    between atoms: C_10  and  C_11
REMARK                            x       y       z     vdW  Elec       q    Type
REMARK                         _______ _______ _______ _____ _____    ______ ____
ROOT
ATOM      2  C   UNL     1     -14.814 -43.411  25.279  0.00  0.00    +0.000 C 
ATOM      3  O   UNL     1     -14.351 -43.498  24.156  0.00  0.00    +0.000 OA
ENDROOT
BRANCH   2   4
ATOM      4  C   UNL     1     -16.105 -42.971  25.457  0.00  0.00    +0.000 A 
ATOM      5  C   UNL     1     -16.577 -42.771  26.708  0.00  0.00    +0.000 A 
ATOM      6  C   UNL     1     -17.827 -42.343  26.949  0.00  0.00    +0.000 A 
ATOM      7  C   UNL     1     -18.681 -42.089  25.946  0.00  0.00    +0.000 A 
ATOM      8  C   UNL     1     -18.227 -42.284  24.698  0.00  0.00    +0.000 A 
ATOM      9  C   UNL     1     -16.976 -42.712  24.459  0.00  0.00    +0.000 A 
BRANCH   7  17
ATOM     17  C   UNL     1     -20.093 -41.607  26.181  0.00  0.00    +0.000 C 
ATOM     18  F   UNL     1     -20.253 -40.956  27.321  0.00  0.00    +0.000 F 
ATOM     19  F   UNL     1     -20.933 -42.631  26.180  0.00  0.00    +0.000 F 
ATOM     20  F   UNL     1     -20.470 -40.800  25.200  0.00  0.00    +0.000 F 
ENDBRANCH   7  17
ENDBRANCH   2   4
BRANCH   2   1
ATOM      1  C   UNL     1     -14.025 -43.758  26.343  0.00  0.00    +0.000 C 
ATOM     10  C   UNL     1     -13.791 -45.028  26.738  0.00  0.00    +0.000 C 
BRANCH  10  11
ATOM     11  C   UNL     1     -13.029 -45.450  27.772  0.00  0.00    +0.000 A 
ATOM     12  C   UNL     1     -13.463 -45.226  29.031  0.00  0.00    +0.000 A 
ATOM     13  C   UNL     1     -12.762 -45.616  30.108  0.00  0.00    +0.000 A 
ATOM     14  C   UNL     1     -11.591 -46.249  29.954  0.00  0.00    +0.000 A 
ATOM     15  C   UNL     1     -11.137 -46.483  28.714  0.00  0.00    +0.000 A 
ATOM     16  C   UNL     1     -11.847 -46.089  27.645  0.00  0.00    +0.000 A 
ENDBRANCH  10  11
ENDBRANCH   2   1
TORSDOF 4
ENDMDL
MODEL 4
REMARK VINA RESULT:      -9.4      4.875      9.172
REMARK  Name = Fragment
REMARK  4 active torsions:
REMARK  status: ('A' for Active; 'I' for Inactive)
REMARK    1  A    between atoms: C_1  and  C_2
REMARK    2  A    between atoms: C_2  and  C_4
REMARK    3  A    between atoms: C_7  and  C_17
REMARK    4  A    between atoms: C_10  and  C_11
REMARK                            x       y       z     vdW  Elec       q    Type
REMARK                         _______ _______ _______ _____ _____    ______ ____
ROOT
ATOM      2  C   UNL     1     -15.509 -42.247  24.043  0.00  0.00    +0.000 C 
ATOM      3  O   UNL     1     -14.883 -41.669  23.174  0.00  0.00    +0.000 OA
ENDROOT
BRANCH   2   4
ATOM      4  C   UNL     1     -14.859 -43.098  24.907  0.00  0.00    +0.000 A 
ATOM      5  C   UNL     1     -14.697 -44.397  24.573  0.00  0.00    +0.000 A 
ATOM      6  C   UNL     1     -14.072 -45.277  25.372  0.00  0.00    +0.000 A 
ATOM      7  C   UNL     1     -13.571 -44.904  26.559  0.00  0.00    +0.000 A 
ATOM      8  C   UNL     1     -13.724 -43.616  26.905  0.00  0.00    +0.000 A 
ATOM      9  C   UNL     1     -14.349 -42.738  26.104  0.00  0.00    +0.000 A 
BRANCH   7  17
ATOM     17  C   UNL     1     -12.863 -45.867  27.483  0.00  0.00    +0.000 C 
ATOM     18  F   UNL     1     -13.497 -46.077  28.624  0.00  0.00    +0.000 F 
ATOM     19  F   UNL     1     -11.651 -45.417  27.772  0.00  0.00    +0.000 F 
ATOM     20  F   UNL     1     -12.706 -47.040  26.888  0.00  0.00    +0.000 F 
ENDBRANCH   7  17
ENDBRANCH   2   4
BRANCH   2   1
ATOM      1  C   UNL     1     -16.858 -42.032  24.134  0.00  0.00    +0.000 C 
ATOM     10  C   UNL     1     -17.624 -42.421  25.175  0.00  0.00    +0.000 C 
BRANCH  10  11
ATOM     11  C   UNL     1     -18.956 -42.246  25.339  0.00  0.00    +0.000 A 
ATOM     12  C   UNL     1     -19.399 -41.682  26.483  0.00  0.00    +0.000 A 
ATOM     13  C   UNL     1     -20.705 -41.475  26.718  0.00  0.00    +0.000 A 
ATOM     14  C   UNL     1     -21.616 -41.833  25.803  0.00  0.00    +0.000 A 
ATOM     15  C   UNL     1     -21.202 -42.396  24.659  0.00  0.00    +0.000 A 
ATOM     16  C   UNL     1     -19.894 -42.597  24.435  0.00  0.00    +0.000 A 
ENDBRANCH  10  11
ENDBRANCH   2   1
TORSDOF 4
ENDMDL
MODEL 5
REMARK VINA RESULT:      -8.9      5.555     10.612
REMARK  Name = Fragment
REMARK  4 active torsions:
REMARK  status: ('A' for Active; 'I' for Inactive)
REMARK    1  A    between atoms: C_1  and  C_2
REMARK    2  A    between atoms: C_2  and  C_4
REMARK    3  A    between atoms: C_7  and  C_17
REMARK    4  A    between atoms: C_10  and  C_11
REMARK                            x       y       z     vdW  Elec       q    Type
REMARK                         _______ _______ _______ _____ _____    ______ ____
ROOT
ATOM      2  C   UNL     1     -16.027 -41.949  23.228  0.00  0.00    +0.000 C 
ATOM      3  O   UNL     1     -15.363 -41.292  22.447  0.00  0.00    +0.000 OA
ENDROOT
BRANCH   2   4
ATOM      4  C   UNL     1     -15.404 -42.676  24.216  0.00  0.00    +0.000 A 
ATOM      5  C   UNL     1     -14.984 -43.935  23.957  0.00  0.00    +0.000 A 
ATOM      6  C   UNL     1     -14.370 -44.696  24.877  0.00  0.00    +0.000 A 
ATOM      7  C   UNL     1     -14.140 -44.238  26.117  0.00  0.00    +0.000 A 
ATOM      8  C   UNL     1     -14.551 -42.990  26.389  0.00  0.00    +0.000 A 
ATOM      9  C   UNL     1     -15.164 -42.230  25.467  0.00  0.00    +0.000 A 
BRANCH   7  17
ATOM     17  C   UNL     1     -13.452 -45.067  27.176  0.00  0.00    +0.000 C 
ATOM     18  F   UNL     1     -14.159 -45.210  28.285  0.00  0.00    +0.000 F 
ATOM     19  F   UNL     1     -12.292 -44.518  27.506  0.00  0.00    +0.000 F 
ATOM     20  F   UNL     1     -13.186 -46.277  26.709  0.00  0.00    +0.000 F 
ENDBRANCH   7  17
ENDBRANCH   2   4
BRANCH   2   1
ATOM      1  C   UNL     1     -17.389 -41.943  23.098  0.00  0.00    +0.000 C 
ATOM     10  C   UNL     1     -18.092 -40.980  22.465  0.00  0.00    +0.000 C 
BRANCH  10  11
ATOM     11  C   UNL     1     -19.432 -40.903  22.296  0.00  0.00    +0.000 A 
ATOM     12  C   UNL     1     -20.143 -42.049  22.229  0.00  0.00    +0.000 A 
ATOM     13  C   UNL     1     -21.476 -42.053  22.063  0.00  0.00    +0.000 A 
ATOM     14  C   UNL     1     -22.143 -40.896  21.955  0.00  0.00    +0.000 A 
ATOM     15  C   UNL     1     -21.460 -39.744  22.017  0.00  0.00    +0.000 A 
ATOM     16  C   UNL     1     -20.127 -39.753  22.184  0.00  0.00    +0.000 A 
ENDBRANCH  10  11
ENDBRANCH   2   1
TORSDOF 4
ENDMDL
MODEL 6
REMARK VINA RESULT:      -8.7      6.200     10.867
REMARK  Name = Fragment
REMARK  4 active torsions:
REMARK  status: ('A' for Active; 'I' for Inactive)
REMARK    1  A    between atoms: C_1  and  C_2
REMARK    2  A    between atoms: C_2  and  C_4
REMARK    3  A    between atoms: C_7  and  C_17
REMARK    4  A    between atoms: C_10  and  C_11
REMARK                            x       y       z     vdW  Elec       q    Type
REMARK                         _______ _______ _______ _____ _____    ______ ____
ROOT
ATOM      2  C   UNL     1     -19.547 -42.079  26.675  0.00  0.00    +0.000 C 
ATOM      3  O   UNL     1     -20.143 -42.616  27.590  0.00  0.00    +0.000 OA
ENDROOT
BRANCH   2   4
ATOM      4  C   UNL     1     -18.227 -42.387  26.440  0.00  0.00    +0.000 A 
ATOM      5  C   UNL     1     -17.369 -42.496  27.478  0.00  0.00    +0.000 A 
ATOM      6  C   UNL     1     -16.070 -42.794  27.316  0.00  0.00    +0.000 A 
ATOM      7  C   UNL     1     -15.552 -43.002  26.095  0.00  0.00    +0.000 A 
ATOM      8  C   UNL     1     -16.392 -42.898  25.054  0.00  0.00    +0.000 A 
ATOM      9  C   UNL     1     -17.691 -42.599  25.219  0.00  0.00    +0.000 A 
BRANCH   7  17
ATOM     17  C   UNL     1     -14.097 -43.339  25.875  0.00  0.00    +0.000 C 
ATOM     18  F   UNL     1     -13.800 -44.607  26.109  0.00  0.00    +0.000 F 
ATOM     19  F   UNL     1     -13.330 -42.595  26.659  0.00  0.00    +0.000 F 
ATOM     20  F   UNL     1     -13.747 -43.068  24.627  0.00  0.00    +0.000 F 
ENDBRANCH   7  17
ENDBRANCH   2   4
BRANCH   2   1
ATOM      1  C   UNL     1     -20.217 -41.172  25.899  0.00  0.00    +0.000 C 
ATOM     10  C   UNL     1     -20.586 -41.388  24.618  0.00  0.00    +0.000 C 
BRANCH  10  11
ATOM     11  C   UNL     1     -21.246 -40.548  23.789  0.00  0.00    +0.000 A 
ATOM     12  C   UNL     1     -20.565 -39.967  22.779  0.00  0.00    +0.000 A 
ATOM     13  C   UNL     1     -21.152 -39.122  21.915  0.00  0.00    +0.000 A 
ATOM     14  C   UNL     1     -22.453 -38.830  22.041  0.00  0.00    +0.000 A 
ATOM     15  C   UNL     1     -23.152 -39.393  23.036  0.00  0.00    +0.000 A 
ATOM     16  C   UNL     1     -22.555 -40.237  23.893  0.00  0.00    +0.000 A 
ENDBRANCH  10  11
ENDBRANCH   2   1
TORSDOF 4
ENDMDL
MODEL 7
REMARK VINA RESULT:      -8.6      6.624     11.576
REMARK  Name = Fragment
REMARK  4 active torsions:
REMARK  status: ('A' for Active; 'I' for Inactive)
REMARK    1  A    between atoms: C_1  and  C_2
REMARK    2  A    between atoms: C_2  and  C_4
REMARK    3  A    between atoms: C_7  and  C_17
REMARK    4  A    between atoms: C_10  and  C_11
REMARK                            x       y       z     vdW  Elec       q    Type
REMARK                         _______ _______ _______ _____ _____    ______ ____
ROOT
ATOM      2  C   UNL     1     -19.560 -41.836  24.629  0.00  0.00    +0.000 C 
ATOM      3  O   UNL     1     -20.409 -41.890  25.499  0.00  0.00    +0.000 OA
ENDROOT
BRANCH   2   4
ATOM      4  C   UNL     1     -18.266 -42.209  24.908  0.00  0.00    +0.000 A 
ATOM      5  C   UNL     1     -17.395 -42.417  23.895  0.00  0.00    +0.000 A 
ATOM      6  C   UNL     1     -16.120 -42.782  24.100  0.00  0.00    +0.000 A 
ATOM      7  C   UNL     1     -15.639 -42.962  25.340  0.00  0.00    +0.000 A 
ATOM      8  C   UNL     1     -16.491 -42.759  26.357  0.00  0.00    +0.000 A 
ATOM      9  C   UNL     1     -17.767 -42.394  26.149  0.00  0.00    +0.000 A 
BRANCH   7  17
ATOM     17  C   UNL     1     -14.210 -43.372  25.608  0.00  0.00    +0.000 C 
ATOM     18  F   UNL     1     -13.374 -43.066  24.630  0.00  0.00    +0.000 F 
ATOM     19  F   UNL     1     -14.138 -44.680  25.805  0.00  0.00    +0.000 F 
ATOM     20  F   UNL     1     -13.767 -42.791  26.713  0.00  0.00    +0.000 F 
ENDBRANCH   7  17
ENDBRANCH   2   4
BRANCH   2   1
ATOM      1  C   UNL     1     -19.924 -41.400  23.383  0.00  0.00    +0.000 C 
ATOM     10  C   UNL     1     -20.248 -40.124  23.086  0.00  0.00    +0.000 C 
BRANCH  10  11
ATOM     11  C   UNL     1     -20.616 -39.616  21.887  0.00  0.00    +0.000 A 
ATOM     12  C   UNL     1     -19.800 -39.802  20.828  0.00  0.00    +0.000 A 
ATOM     13  C   UNL     1     -20.097 -39.329  19.606  0.00  0.00    +0.000 A 
ATOM     14  C   UNL     1     -21.233 -38.647  19.408  0.00  0.00    +0.000 A 
ATOM     15  C   UNL     1     -22.060 -38.448  20.444  0.00  0.00    +0.000 A 
ATOM     16  C   UNL     1     -21.753 -38.927  21.661  0.00  0.00    +0.000 A 
ENDBRANCH  10  11
ENDBRANCH   2   1
TORSDOF 4
ENDMDL
MODEL 8
REMARK VINA RESULT:      -8.4      6.949     11.728
REMARK  Name = Fragment
REMARK  4 active torsions:
REMARK  status: ('A' for Active; 'I' for Inactive)
REMARK    1  A    between atoms: C_1  and  C_2
REMARK    2  A    between atoms: C_2  and  C_4
REMARK    3  A    between atoms: C_7  and  C_17
REMARK    4  A    between atoms: C_10  and  C_11
REMARK                            x       y       z     vdW  Elec       q    Type
REMARK                         _______ _______ _______ _____ _____    ______ ____
ROOT
ATOM      2  C   UNL     1     -17.936 -42.213  23.368  0.00  0.00    +0.000 C 
ATOM      3  O   UNL     1     -17.118 -42.718  22.620  0.00  0.00    +0.000 OA
ENDROOT
BRANCH   2   4
ATOM      4  C   UNL     1     -17.782 -42.324  24.730  0.00  0.00    +0.000 A 
ATOM      5  C   UNL     1     -16.573 -42.645  25.244  0.00  0.00    +0.000 A 
ATOM      6  C   UNL     1     -16.358 -42.768  26.563  0.00  0.00    +0.000 A 
ATOM      7  C   UNL     1     -17.346 -42.576  27.450  0.00  0.00    +0.000 A 
ATOM      8  C   UNL     1     -18.552 -42.257  26.956  0.00  0.00    +0.000 A 
ATOM      9  C   UNL     1     -18.765 -42.134  25.635  0.00  0.00    +0.000 A 
BRANCH   7  17
ATOM     17  C   UNL     1     -17.139 -42.706  28.941  0.00  0.00    +0.000 C 
ATOM     18  F   UNL     1     -16.167 -43.539  29.275  0.00  0.00    +0.000 F 
ATOM     19  F   UNL     1     -18.251 -43.131  29.522  0.00  0.00    +0.000 F 
ATOM     20  F   UNL     1     -16.856 -41.525  29.469  0.00  0.00    +0.000 F 
ENDBRANCH   7  17
ENDBRANCH   2   4
BRANCH   2   1
ATOM      1  C   UNL     1     -18.997 -41.542  22.822  0.00  0.00    +0.000 C 
ATOM     10  C   UNL     1     -18.886 -40.505  21.965  0.00  0.00    +0.000 C 
BRANCH  10  11
ATOM     11  C   UNL     1     -19.880 -39.794  21.386  0.00  0.00    +0.000 A 
ATOM     12  C   UNL     1     -19.773 -39.478  20.078  0.00  0.00    +0.000 A 
ATOM     13  C   UNL     1     -20.719 -38.775  19.433  0.00  0.00    +0.000 A 
ATOM     14  C   UNL     1     -21.812 -38.363  20.089  0.00  0.00    +0.000 A 
ATOM     15  C   UNL     1     -21.943 -38.664  21.389  0.00  0.00    +0.000 A 
ATOM     16  C   UNL     1     -20.990 -39.368  22.022  0.00  0.00    +0.000 A 
ENDBRANCH  10  11
ENDBRANCH   2   1
TORSDOF 4
ENDMDL
MODEL 9
REMARK VINA RESULT:      -8.4      5.877     10.680
REMARK  Name = Fragment
REMARK  4 active torsions:
REMARK  status: ('A' for Active; 'I' for Inactive)
REMARK    1  A    between atoms: C_1  and  C_2
REMARK    2  A    between atoms: C_2  and  C_4
REMARK    3  A    between atoms: C_7  and  C_17
REMARK    4  A    between atoms: C_10  and  C_11
REMARK                            x       y       z     vdW  Elec       q    Type
REMARK                         _______ _______ _______ _____ _____    ______ ____
ROOT
ATOM      2  C   UNL     1     -17.261 -42.185  23.394  0.00  0.00    +0.000 C 
ATOM      3  O   UNL     1     -16.806 -41.719  22.365  0.00  0.00    +0.000 OA
ENDROOT
BRANCH   2   4
ATOM      4  C   UNL     1     -16.423 -42.776  24.311  0.00  0.00    +0.000 A 
ATOM      5  C   UNL     1     -15.408 -43.558  23.882  0.00  0.00    +0.000 A 
ATOM      6  C   UNL     1     -14.555 -44.163  24.725  0.00  0.00    +0.000 A 
ATOM      7  C   UNL     1     -14.670 -44.017  26.054  0.00  0.00    +0.000 A 
ATOM      8  C   UNL     1     -15.674 -43.242  26.495  0.00  0.00    +0.000 A 
ATOM      9  C   UNL     1     -16.525 -42.639  25.650  0.00  0.00    +0.000 A 
BRANCH   7  17
ATOM     17  C   UNL     1     -13.730 -44.682  27.031  0.00  0.00    +0.000 C 
ATOM     18  F   UNL     1     -13.295 -45.866  26.633  0.00  0.00    +0.000 F 
ATOM     19  F   UNL     1     -14.326 -44.844  28.203  0.00  0.00    +0.000 F 
ATOM     20  F   UNL     1     -12.671 -43.914  27.241  0.00  0.00    +0.000 F 
ENDBRANCH   7  17
ENDBRANCH   2   4
BRANCH   2   1
ATOM      1  C   UNL     1     -18.611 -42.106  23.609  0.00  0.00    +0.000 C 
ATOM     10  C   UNL     1     -19.316 -40.955  23.622  0.00  0.00    +0.000 C 
BRANCH  10  11
ATOM     11  C   UNL     1     -20.643 -40.794  23.826  0.00  0.00    +0.000 A 
ATOM     12  C   UNL     1     -21.435 -40.533  22.765  0.00  0.00    +0.000 A 
ATOM     13  C   UNL     1     -22.762 -40.362  22.888  0.00  0.00    +0.000 A 
ATOM     14  C   UNL     1     -23.340 -40.447  24.094  0.00  0.00    +0.000 A 
ATOM     15  C   UNL     1     -22.576 -40.705  25.165  0.00  0.00    +0.000 A 
ATOM     16  C   UNL     1     -21.251 -40.874  25.028  0.00  0.00    +0.000 A 
ENDBRANCH  10  11
ENDBRANCH   2   1
TORSDOF 4
ENDMDL
MODEL 10
REMARK VINA RESULT:      -8.2      7.227     10.125
REMARK  Name = Fragment
REMARK  4 active torsions:
REMARK  status: ('A' for Active; 'I' for Inactive)
REMARK    1  A    between atoms: C_1  and  C_2
REMARK    2  A    between atoms: C_2  and  C_4
REMARK    3  A    between atoms: C_7  and  C_17
REMARK    4  A    between atoms: C_10  and  C_11
REMARK                            x       y       z     vdW  Elec       q    Type
REMARK                         _______ _______ _______ _____ _____    ______ ____
ROOT
ATOM      2  C   UNL     1     -19.610 -41.715  24.055  0.00  0.00    +0.000 C 
ATOM      3  O   UNL     1     -19.582 -41.446  22.868  0.00  0.00    +0.000 OA
ENDROOT
BRANCH   2   4
ATOM      4  C   UNL     1     -20.632 -41.237  24.843  0.00  0.00    +0.000 A 
ATOM      5  C   UNL     1     -20.521 -41.292  26.189  0.00  0.00    +0.000 A 
ATOM      6  C   UNL     1     -21.481 -40.843  27.012  0.00  0.00    +0.000 A 
ATOM      7  C   UNL     1     -22.615 -40.309  26.533  0.00  0.00    +0.000 A 
ATOM      8  C   UNL     1     -22.740 -40.248  25.198  0.00  0.00    +0.000 A 
ATOM      9  C   UNL     1     -21.778 -40.698  24.376  0.00  0.00    +0.000 A 
BRANCH   7  17
ATOM     17  C   UNL     1     -23.716 -39.795  27.430  0.00  0.00    +0.000 C 
ATOM     18  F   UNL     1     -23.836 -40.462  28.566  0.00  0.00    +0.000 F 
ATOM     19  F   UNL     1     -24.882 -39.851  26.804  0.00  0.00    +0.000 F 
ATOM     20  F   UNL     1     -23.503 -38.522  27.732  0.00  0.00    +0.000 F 
ENDBRANCH   7  17
ENDBRANCH   2   4
BRANCH   2   1
ATOM      1  C   UNL     1     -18.613 -42.495  24.575  0.00  0.00    +0.000 C 
ATOM     10  C   UNL     1     -17.298 -42.194  24.515  0.00  0.00    +0.000 C 
BRANCH  10  11
ATOM     11  C   UNL     1     -16.258 -42.908  25.002  0.00  0.00    +0.000 A 
ATOM     12  C   UNL     1     -16.038 -42.906  26.334  0.00  0.00    +0.000 A 
ATOM     13  C   UNL     1     -15.027 -43.591  26.892  0.00  0.00    +0.000 A 
ATOM     14  C   UNL     1     -14.195 -44.305  26.123  0.00  0.00    +0.000 A 
ATOM     15  C   UNL     1     -14.391 -44.324  24.797  0.00  0.00    +0.000 A 
ATOM     16  C   UNL     1     -15.406 -43.636  24.250  0.00  0.00    +0.000 A 
ENDBRANCH  10  11
ENDBRANCH   2   1
TORSDOF 4
ENDMDL
