MODEL 1
REMARK VINA RESULT:      -9.8      0.000      0.000
REMARK  Name = Fragment
REMARK  3 active torsions:
REMARK  status: ('A' for Active; 'I' for Inactive)
REMARK    1  A    between atoms: C_1  and  C_2
REMARK    2  A    between atoms: C_2  and  C_4
REMARK    3  A    between atoms: C_10  and  C_11
REMARK                            x       y       z     vdW  Elec       q    Type
REMARK                         _______ _______ _______ _____ _____    ______ ____
ROOT
ATOM      2  C   UNL     1     -12.778 -46.174  30.716  0.00  0.00    +0.000 C 
ATOM      3  O   UNL     1     -13.565 -46.754  31.441  0.00  0.00    +0.000 OA
ENDROOT
BRANCH   2   4
ATOM      4  C   UNL     1     -13.184 -45.720  29.482  0.00  0.00    +0.000 A 
ATOM      5  C   UNL     1     -12.677 -46.287  28.364  0.00  0.00    +0.000 A 
ATOM      6  C   UNL     1     -13.030 -45.894  27.129  0.00  0.00    +0.000 A 
ATOM      7  C   UNL     1     -13.918 -44.903  26.969  0.00  0.00    +0.000 A 
ATOM      8  C   UNL     1     -14.440 -44.320  28.056  0.00  0.00    +0.000 A 
ATOM      9  C   UNL     1     -14.076 -44.725  29.286  0.00  0.00    +0.000 A 
ATOM     17 CL   UNL     1     -14.382 -44.386  25.388  0.00  0.00    +0.000 Cl
ENDBRANCH   2   4
BRANCH   2   1
ATOM      1  C   UNL     1     -11.495 -45.989  31.158  0.00  0.00    +0.000 C 
ATOM     10  C   UNL     1     -10.943 -44.785  31.416  0.00  0.00    +0.000 C 
BRANCH  10  11
ATOM     11  C   UNL     1      -9.690 -44.520  31.853  0.00  0.00    +0.000 A 
ATOM     12  C   UNL     1      -8.697 -45.374  31.527  0.00  0.00    +0.000 A 
ATOM     13  C   UNL     1      -7.428 -45.179  31.923  0.00  0.00    +0.000 A 
ATOM     14  C   UNL     1      -7.115 -44.109  32.667  0.00  0.00    +0.000 A 
ATOM     15  C   UNL     1      -8.083 -43.245  33.004  0.00  0.00    +0.000 A 
ATOM     16  C   UNL     1      -9.348 -43.452  32.602  0.00  0.00    +0.000 A 
ENDBRANCH  10  11
ENDBRANCH   2   1
TORSDOF 3
ENDMDL
MODEL 2
REMARK VINA RESULT:      -9.7      2.844      6.806
REMARK  Name = Fragment
REMARK  3 active torsions:
REMARK  status: ('A' for Active; 'I' for Inactive)
REMARK    1  A    between atoms: C_1  and  C_2
REMARK    2  A    between atoms: C_2  and  C_4
REMARK    3  A    between atoms: C_10  and  C_11
REMARK                            x       y       z     vdW  Elec       q    Type
REMARK                         _______ _______ _______ _____ _____    ______ ____
ROOT
ATOM      2  C   UNL     1     -12.991 -46.061  29.644  0.00  0.00    +0.000 C 
ATOM      3  O   UNL     1     -13.821 -46.450  30.446  0.00  0.00    +0.000 OA
ENDROOT
BRANCH   2   4
ATOM      4  C   UNL     1     -11.657 -46.056  29.982  0.00  0.00    +0.000 A 
ATOM      5  C   UNL     1     -11.288 -45.687  31.229  0.00  0.00    +0.000 A 
ATOM      6  C   UNL     1     -10.005 -45.659  31.626  0.00  0.00    +0.000 A 
ATOM      7  C   UNL     1      -9.032 -46.007  30.774  0.00  0.00    +0.000 A 
ATOM      8  C   UNL     1      -9.364 -46.378  29.530  0.00  0.00    +0.000 A 
ATOM      9  C   UNL     1     -10.652 -46.400  29.148  0.00  0.00    +0.000 A 
ATOM     17 CL   UNL     1      -7.378 -45.977  31.269  0.00  0.00    +0.000 Cl
ENDBRANCH   2   4
BRANCH   2   1
ATOM      1  C   UNL     1     -13.418 -45.634  28.415  0.00  0.00    +0.000 C 
ATOM     10  C   UNL     1     -14.182 -44.541  28.210  0.00  0.00    +0.000 C 
BRANCH  10  11
ATOM     11  C   UNL     1     -14.643 -44.056  27.033  0.00  0.00    +0.000 A 
ATOM     12  C   UNL     1     -14.160 -44.577  25.885  0.00  0.00    +0.000 A 
ATOM     13  C   UNL     1     -14.568 -44.149  24.680  0.00  0.00    +0.000 A 
ATOM     14  C   UNL     1     -15.483 -43.174  24.589  0.00  0.00    +0.000 A 
ATOM     15  C   UNL     1     -15.978 -42.640  25.714  0.00  0.00    +0.000 A 
ATOM     16  C   UNL     1     -15.562 -43.077  26.913  0.00  0.00    +0.000 A 
ENDBRANCH  10  11
ENDBRANCH   2   1
TORSDOF 3
ENDMDL
MODEL 3
REMARK VINA RESULT:      -9.7      3.744      5.837
REMARK  Name = Fragment
REMARK  3 active torsions:
REMARK  status: ('A' for Active; 'I' for Inactive)
REMARK    1  A    between atoms: C_1  and  C_2
REMARK    2  A    between atoms: C_2  and  C_4
REMARK    3  A    between atoms: C_10  and  C_11
REMARK                            x       y       z     vdW  Elec       q    Type
REMARK                         _______ _______ _______ _____ _____    ______ ____
ROOT
ATOM      2  C   UNL     1     -14.783 -43.410  25.395  0.00  0.00    +0.000 C 
ATOM      3  O   UNL     1     -14.433 -43.485  24.230  0.00  0.00    +0.000 OA
ENDROOT
BRANCH   2   4
ATOM      4  C   UNL     1     -16.049 -42.970  25.705  0.00  0.00    +0.000 A 
ATOM      5  C   UNL     1     -16.380 -42.755  26.998  0.00  0.00    +0.000 A 
ATOM      6  C   UNL     1     -17.597 -42.325  27.372  0.00  0.00    +0.000 A 
ATOM      7  C   UNL     1     -18.539 -42.094  26.448  0.00  0.00    +0.000 A 
ATOM      8  C   UNL     1     -18.243 -42.297  25.158  0.00  0.00    +0.000 A 
ATOM      9  C   UNL     1     -17.021 -42.727  24.799  0.00  0.00    +0.000 A 
ATOM     17 CL   UNL     1     -20.108 -41.542  26.912  0.00  0.00    +0.000 Cl
ENDBRANCH   2   4
BRANCH   2   1
ATOM      1  C   UNL     1     -13.893 -43.772  26.370  0.00  0.00    +0.000 C 
ATOM     10  C   UNL     1     -13.759 -45.024  26.855  0.00  0.00    +0.000 C 
BRANCH  10  11
ATOM     11  C   UNL     1     -12.908 -45.459  27.813  0.00  0.00    +0.000 A 
ATOM     12  C   UNL     1     -13.190 -45.182  29.104  0.00  0.00    +0.000 A 
ATOM     13  C   UNL     1     -12.394 -45.580  30.110  0.00  0.00    +0.000 A 
ATOM     14  C   UNL     1     -11.279 -46.276  29.848  0.00  0.00    +0.000 A 
ATOM     15  C   UNL     1     -10.977 -46.564  28.575  0.00  0.00    +0.000 A 
ATOM     16  C   UNL     1     -11.781 -46.161  27.578  0.00  0.00    +0.000 A 
ENDBRANCH  10  11
ENDBRANCH   2   1
TORSDOF 3
ENDMDL
MODEL 4
REMARK VINA RESULT:      -9.6      2.680      6.658
REMARK  Name = Fragment
REMARK  3 active torsions:
REMARK  status: ('A' for Active; 'I' for Inactive)
REMARK    1  A    between atoms: C_1  and  C_2
REMARK    2  A    between atoms: C_2  and  C_4
REMARK    3  A    between atoms: C_10  and  C_11
REMARK                            x       y       z     vdW  Elec       q    Type
REMARK                         _______ _______ _______ _____ _____    ______ ____
ROOT
ATOM      2  C   UNL     1     -13.227 -45.727  30.627  0.00  0.00    +0.000 C 
ATOM      3  O   UNL     1     -13.700 -46.750  31.088  0.00  0.00    +0.000 OA
ENDROOT
BRANCH   2   4
ATOM      4  C   UNL     1     -12.020 -45.257  31.092  0.00  0.00    +0.000 A 
ATOM      5  C   UNL     1     -10.957 -46.090  31.144  0.00  0.00    +0.000 A 
ATOM      6  C   UNL     1      -9.751 -45.697  31.587  0.00  0.00    +0.000 A 
ATOM      7  C   UNL     1      -9.566 -44.437  32.000  0.00  0.00    +0.000 A 
ATOM      8  C   UNL     1     -10.599 -43.585  31.961  0.00  0.00    +0.000 A 
ATOM      9  C   UNL     1     -11.800 -43.993  31.515  0.00  0.00    +0.000 A 
ATOM     17 CL   UNL     1      -8.022 -43.917  32.572  0.00  0.00    +0.000 Cl
ENDBRANCH   2   4
BRANCH   2   1
ATOM      1  C   UNL     1     -13.920 -45.068  29.647  0.00  0.00    +0.000 C 
ATOM     10  C   UNL     1     -13.579 -45.065  28.341  0.00  0.00    +0.000 C 
BRANCH  10  11
ATOM     11  C   UNL     1     -14.208 -44.443  27.318  0.00  0.00    +0.000 A 
ATOM     12  C   UNL     1     -15.137 -43.505  27.603  0.00  0.00    +0.000 A 
ATOM     13  C   UNL     1     -15.804 -42.845  26.642  0.00  0.00    +0.000 A 
ATOM     14  C   UNL     1     -15.556 -43.108  25.352  0.00  0.00    +0.000 A 
ATOM     15  C   UNL     1     -14.638 -44.034  25.042  0.00  0.00    +0.000 A 
ATOM     16  C   UNL     1     -13.978 -44.688  26.012  0.00  0.00    +0.000 A 
ENDBRANCH  10  11
ENDBRANCH   2   1
TORSDOF 3
ENDMDL
MODEL 5
REMARK VINA RESULT:      -9.4      4.217      6.405
REMARK  Name = Fragment
REMARK  3 active torsions:
REMARK  status: ('A' for Active; 'I' for Inactive)
REMARK    1  A    between atoms: C_1  and  C_2
REMARK    2  A    between atoms: C_2  and  C_4
REMARK    3  A    between atoms: C_10  and  C_11
REMARK                            x       y       z     vdW  Elec       q    Type
REMARK                         _______ _______ _______ _____ _____    ______ ____
ROOT
ATOM      2  C   UNL     1     -15.622 -43.188  24.925  0.00  0.00    +0.000 C 
ATOM      3  O   UNL     1     -15.264 -42.853  23.809  0.00  0.00    +0.000 OA
ENDROOT
BRANCH   2   4
ATOM      4  C   UNL     1     -16.821 -42.737  25.426  0.00  0.00    +0.000 A 
ATOM      5  C   UNL     1     -17.802 -42.366  24.573  0.00  0.00    +0.000 A 
ATOM      6  C   UNL     1     -18.996 -41.917  24.993  0.00  0.00    +0.000 A 
ATOM      7  C   UNL     1     -19.253 -41.822  26.305  0.00  0.00    +0.000 A 
ATOM      8  C   UNL     1     -18.302 -42.182  27.177  0.00  0.00    +0.000 A 
ATOM      9  C   UNL     1     -17.112 -42.630  26.741  0.00  0.00    +0.000 A 
ATOM     17 CL   UNL     1     -20.782 -41.247  26.861  0.00  0.00    +0.000 Cl
ENDBRANCH   2   4
BRANCH   2   1
ATOM      1  C   UNL     1     -14.809 -44.014  25.653  0.00  0.00    +0.000 C 
ATOM     10  C   UNL     1     -13.795 -43.590  26.437  0.00  0.00    +0.000 C 
BRANCH  10  11
ATOM     11  C   UNL     1     -12.951 -44.339  27.183  0.00  0.00    +0.000 A 
ATOM     12  C   UNL     1     -13.087 -45.682  27.163  0.00  0.00    +0.000 A 
ATOM     13  C   UNL     1     -12.287 -46.491  27.877  0.00  0.00    +0.000 A 
ATOM     14  C   UNL     1     -11.317 -45.972  28.641  0.00  0.00    +0.000 A 
ATOM     15  C   UNL     1     -11.161 -44.641  28.679  0.00  0.00    +0.000 A 
ATOM     16  C   UNL     1     -11.967 -43.842  27.961  0.00  0.00    +0.000 A 
ENDBRANCH  10  11
ENDBRANCH   2   1
TORSDOF 3
ENDMDL
MODEL 6
REMARK VINA RESULT:      -9.1      2.480      4.021
REMARK  Name = Fragment
REMARK  3 active torsions:
REMARK  status: ('A' for Active; 'I' for Inactive)
REMARK    1  A    between atoms: C_1  and  C_2
REMARK    2  A    between atoms: C_2  and  C_4
REMARK    3  A    between atoms: C_10  and  C_11
REMARK                            x       y       z     vdW  Elec       q    Type
REMARK                         _______ _______ _______ _____ _____    ______ ____
ROOT
ATOM      2  C   UNL     1     -14.550 -44.112  28.025  0.00  0.00    +0.000 C 
ATOM      3  O   UNL     1     -15.299 -43.991  28.978  0.00  0.00    +0.000 OA
ENDROOT
BRANCH   2   4
ATOM      4  C   UNL     1     -14.982 -43.772  26.764  0.00  0.00    +0.000 A 
ATOM      5  C   UNL     1     -16.049 -42.953  26.624  0.00  0.00    +0.000 A 
ATOM      6  C   UNL     1     -16.524 -42.580  25.424  0.00  0.00    +0.000 A 
ATOM      7  C   UNL     1     -15.937 -43.022  24.304  0.00  0.00    +0.000 A 
ATOM      8  C   UNL     1     -14.876 -43.835  24.407  0.00  0.00    +0.000 A 
ATOM      9  C   UNL     1     -14.413 -44.199  25.615  0.00  0.00    +0.000 A 
ATOM     17 CL   UNL     1     -16.534 -42.552  22.754  0.00  0.00    +0.000 Cl
ENDBRANCH   2   4
BRANCH   2   1
ATOM      1  C   UNL     1     -13.286 -44.590  28.242  0.00  0.00    +0.000 C 
ATOM     10  C   UNL     1     -12.906 -45.273  29.342  0.00  0.00    +0.000 C 
BRANCH  10  11
ATOM     11  C   UNL     1     -11.683 -45.775  29.629  0.00  0.00    +0.000 A 
ATOM     12  C   UNL     1     -11.324 -45.905  30.924  0.00  0.00    +0.000 A 
ATOM     13  C   UNL     1     -10.127 -46.395  31.288  0.00  0.00    +0.000 A 
ATOM     14  C   UNL     1      -9.245 -46.774  30.353  0.00  0.00    +0.000 A 
ATOM     15  C   UNL     1      -9.578 -46.655  29.060  0.00  0.00    +0.000 A 
ATOM     16  C   UNL     1     -10.777 -46.164  28.709  0.00  0.00    +0.000 A 
ENDBRANCH  10  11
ENDBRANCH   2   1
TORSDOF 3
ENDMDL
MODEL 7
REMARK VINA RESULT:      -9.0      3.586      7.789
REMARK  Name = Fragment
REMARK  3 active torsions:
REMARK  status: ('A' for Active; 'I' for Inactive)
REMARK    1  A    between atoms: C_1  and  C_2
REMARK    2  A    between atoms: C_2  and  C_4
REMARK    3  A    between atoms: C_10  and  C_11
REMARK                            x       y       z     vdW  Elec       q    Type
REMARK                         _______ _______ _______ _____ _____    ______ ____
ROOT
ATOM      2  C   UNL     1     -14.237 -44.345  28.230  0.00  0.00    +0.000 C 
ATOM      3  O   UNL     1     -15.044 -44.151  29.121  0.00  0.00    +0.000 OA
ENDROOT
BRANCH   2   4
ATOM      4  C   UNL     1     -13.037 -44.958  28.510  0.00  0.00    +0.000 A 
ATOM      5  C   UNL     1     -12.328 -44.569  29.593  0.00  0.00    +0.000 A 
ATOM      6  C   UNL     1     -11.150 -45.123  29.925  0.00  0.00    +0.000 A 
ATOM      7  C   UNL     1     -10.634 -46.102  29.171  0.00  0.00    +0.000 A 
ATOM      8  C   UNL     1     -11.311 -46.511  28.090  0.00  0.00    +0.000 A 
ATOM      9  C   UNL     1     -12.488 -45.947  27.771  0.00  0.00    +0.000 A 
ATOM     17 CL   UNL     1      -9.121 -46.824  29.584  0.00  0.00    +0.000 Cl
ENDBRANCH   2   4
BRANCH   2   1
ATOM      1  C   UNL     1     -14.554 -43.943  26.960  0.00  0.00    +0.000 C 
ATOM     10  C   UNL     1     -15.625 -43.183  26.645  0.00  0.00    +0.000 C 
BRANCH  10  11
ATOM     11  C   UNL     1     -16.004 -42.746  25.423  0.00  0.00    +0.000 A 
ATOM     12  C   UNL     1     -15.062 -42.258  24.588  0.00  0.00    +0.000 A 
ATOM     13  C   UNL     1     -15.362 -41.806  23.359  0.00  0.00    +0.000 A 
ATOM     14  C   UNL     1     -16.629 -41.830  22.926  0.00  0.00    +0.000 A 
ATOM     15  C   UNL     1     -17.584 -42.310  23.736  0.00  0.00    +0.000 A 
ATOM     16  C   UNL     1     -17.272 -42.759  24.962  0.00  0.00    +0.000 A 
ENDBRANCH  10  11
ENDBRANCH   2   1
TORSDOF 3
ENDMDL
MODEL 8
REMARK VINA RESULT:      -8.7      4.573      8.749
REMARK  Name = Fragment
REMARK  3 active torsions:
REMARK  status: ('A' for Active; 'I' for Inactive)
REMARK    1  A    between atoms: C_1  and  C_2
REMARK    2  A    between atoms: C_2  and  C_4
REMARK    3  A    between atoms: C_10  and  C_11
REMARK                            x       y       z     vdW  Elec       q    Type
REMARK                         _______ _______ _______ _____ _____    ______ ____
ROOT
ATOM      2  C   UNL     1     -14.420 -43.146  25.028  0.00  0.00    +0.000 C 
ATOM      3  O   UNL     1     -13.789 -42.647  24.114  0.00  0.00    +0.000 OA
ENDROOT
BRANCH   2   4
ATOM      4  C   UNL     1     -13.762 -43.815  26.034  0.00  0.00    +0.000 A 
ATOM      5  C   UNL     1     -12.915 -43.137  26.840  0.00  0.00    +0.000 A 
ATOM      6  C   UNL     1     -12.240 -43.727  27.841  0.00  0.00    +0.000 A 
ATOM      7  C   UNL     1     -12.393 -45.038  28.072  0.00  0.00    +0.000 A 
ATOM      8  C   UNL     1     -13.225 -45.739  27.290  0.00  0.00    +0.000 A 
ATOM      9  C   UNL     1     -13.893 -45.134  26.293  0.00  0.00    +0.000 A 
ATOM     17 CL   UNL     1     -11.533 -45.811  29.353  0.00  0.00    +0.000 Cl
ENDBRANCH   2   4
BRANCH   2   1
ATOM      1  C   UNL     1     -15.784 -43.024  25.025  0.00  0.00    +0.000 C 
ATOM     10  C   UNL     1     -16.509 -42.543  26.056  0.00  0.00    +0.000 C 
BRANCH  10  11
ATOM     11  C   UNL     1     -17.852 -42.391  26.130  0.00  0.00    +0.000 A 
ATOM     12  C   UNL     1     -18.577 -42.478  24.994  0.00  0.00    +0.000 A 
ATOM     13  C   UNL     1     -19.913 -42.338  24.988  0.00  0.00    +0.000 A 
ATOM     14  C   UNL     1     -20.569 -42.106  26.132  0.00  0.00    +0.000 A 
ATOM     15  C   UNL     1     -19.872 -42.015  27.274  0.00  0.00    +0.000 A 
ATOM     16  C   UNL     1     -18.537 -42.156  27.268  0.00  0.00    +0.000 A 
ENDBRANCH  10  11
ENDBRANCH   2   1
TORSDOF 3
ENDMDL
MODEL 9
REMARK VINA RESULT:      -8.6      3.402      6.658
REMARK  Name = Fragment
REMARK  3 active torsions:
REMARK  status: ('A' for Active; 'I' for Inactive)
REMARK    1  A    between atoms: C_1  and  C_2
REMARK    2  A    between atoms: C_2  and  C_4
REMARK    3  A    between atoms: C_10  and  C_11
REMARK                            x       y       z     vdW  Elec       q    Type
REMARK                         _______ _______ _______ _____ _____    ______ ____
ROOT
ATOM      2  C   UNL     1      -8.826 -45.590  30.844  0.00  0.00    +0.000 C 
ATOM      3  O   UNL     1      -7.791 -46.213  30.684  0.00  0.00    +0.000 OA
ENDROOT
BRANCH   2   4
ATOM      4  C   UNL     1      -8.901 -44.618  31.814  0.00  0.00    +0.000 A 
ATOM      5  C   UNL     1      -7.762 -44.080  32.308  0.00  0.00    +0.000 A 
ATOM      6  C   UNL     1      -7.762 -43.128  33.255  0.00  0.00    +0.000 A 
ATOM      7  C   UNL     1      -8.921 -42.674  33.749  0.00  0.00    +0.000 A 
ATOM      8  C   UNL     1     -10.068 -43.186  33.282  0.00  0.00    +0.000 A 
ATOM      9  C   UNL     1     -10.052 -44.138  32.334  0.00  0.00    +0.000 A 
ATOM     17 CL   UNL     1      -8.938 -41.451  34.967  0.00  0.00    +0.000 Cl
ENDBRANCH   2   4
BRANCH   2   1
ATOM      1  C   UNL     1      -9.896 -45.882  30.041  0.00  0.00    +0.000 C 
ATOM     10  C   UNL     1     -10.413 -45.040  29.122  0.00  0.00    +0.000 C 
BRANCH  10  11
ATOM     11  C   UNL     1     -11.463 -45.253  28.295  0.00  0.00    +0.000 A 
ATOM     12  C   UNL     1     -11.633 -46.485  27.770  0.00  0.00    +0.000 A 
ATOM     13  C   UNL     1     -12.650 -46.773  26.941  0.00  0.00    +0.000 A 
ATOM     14  C   UNL     1     -13.537 -45.824  26.612  0.00  0.00    +0.000 A 
ATOM     15  C   UNL     1     -13.390 -44.593  27.121  0.00  0.00    +0.000 A 
ATOM     16  C   UNL     1     -12.369 -44.317  27.948  0.00  0.00    +0.000 A 
ENDBRANCH  10  11
ENDBRANCH   2   1
TORSDOF 3
ENDMDL
MODEL 10
REMARK VINA RESULT:      -8.4      4.558      8.924
REMARK  Name = Fragment
REMARK  3 active torsions:
REMARK  status: ('A' for Active; 'I' for Inactive)
REMARK    1  A    between atoms: C_1  and  C_2
REMARK    2  A    between atoms: C_2  and  C_4
REMARK    3  A    between atoms: C_10  and  C_11
REMARK                            x       y       z     vdW  Elec       q    Type
REMARK                         _______ _______ _______ _____ _____    ______ ____
ROOT
ATOM      2  C   UNL     1     -16.138 -43.096  28.551  0.00  0.00    +0.000 C 
ATOM      3  O   UNL     1     -16.392 -42.787  29.702  0.00  0.00    +0.000 OA
ENDROOT
BRANCH   2   4
ATOM      4  C   UNL     1     -15.072 -43.922  28.280  0.00  0.00    +0.000 A 
ATOM      5  C   UNL     1     -14.423 -44.529  29.299  0.00  0.00    +0.000 A 
ATOM      6  C   UNL     1     -13.376 -45.347  29.106  0.00  0.00    +0.000 A 
ATOM      7  C   UNL     1     -12.934 -45.590  27.865  0.00  0.00    +0.000 A 
ATOM      8  C   UNL     1     -13.555 -45.004  26.832  0.00  0.00    +0.000 A 
ATOM      9  C   UNL     1     -14.602 -44.188  27.041  0.00  0.00    +0.000 A 
ATOM     17 CL   UNL     1     -11.589 -46.639  27.601  0.00  0.00    +0.000 Cl
ENDBRANCH   2   4
BRANCH   2   1
ATOM      1  C   UNL     1     -16.933 -42.604  27.551  0.00  0.00    +0.000 C 
ATOM     10  C   UNL     1     -18.266 -42.420  27.657  0.00  0.00    +0.000 C 
BRANCH  10  11
ATOM     11  C   UNL     1     -19.117 -41.941  26.719  0.00  0.00    +0.000 A 
ATOM     12  C   UNL     1     -18.748 -41.996  25.422  0.00  0.00    +0.000 A 
ATOM     13  C   UNL     1     -19.538 -41.541  24.436  0.00  0.00    +0.000 A 
ATOM     14  C   UNL     1     -20.735 -41.012  24.724  0.00  0.00    +0.000 A 
ATOM     15  C   UNL     1     -21.124 -40.945  26.005  0.00  0.00    +0.000 A 
ATOM     16  C   UNL     1     -20.326 -41.403  26.983  0.00  0.00    +0.000 A 
ENDBRANCH  10  11
ENDBRANCH   2   1
TORSDOF 3
ENDMDL
