MODEL 1
REMARK VINA RESULT:     -10.0      0.000      0.000
REMARK  Name = Fragment
REMARK  3 active torsions:
REMARK  status: ('A' for Active; 'I' for Inactive)
REMARK    1  A    between atoms: C_1  and  C_2
REMARK    2  A    between atoms: C_2  and  C_4
REMARK    3  A    between atoms: C_10  and  C_11
REMARK                            x       y       z     vdW  Elec       q    Type
REMARK                         _______ _______ _______ _____ _____    ______ ____
ROOT
ATOM      1  C   UNL     1     -13.998 -43.717  26.311  0.00  0.00    +0.000 C 
ATOM     10  C   UNL     1     -13.827 -44.964  26.801  0.00  0.00    +0.000 C 
ENDROOT
BRANCH  10  11
ATOM     11  C   UNL     1     -13.007 -45.359  27.802  0.00  0.00    +0.000 A 
ATOM     12  C   UNL     1     -13.288 -44.964  29.062  0.00  0.00    +0.000 A 
ATOM     13  C   UNL     1     -12.523 -45.314  30.109  0.00  0.00    +0.000 A 
ATOM     14  C   UNL     1     -11.440 -46.081  29.917  0.00  0.00    +0.000 A 
ATOM     15  C   UNL     1     -11.137 -46.487  28.677  0.00  0.00    +0.000 A 
ATOM     16  C   UNL     1     -11.912 -46.128  27.639  0.00  0.00    +0.000 A 
ATOM     17 CL   UNL     1     -10.446 -46.539  31.253  0.00  0.00    +0.000 Cl
ENDBRANCH  10  11
BRANCH   1   2
ATOM      2  C   UNL     1     -14.852 -43.398  25.290  0.00  0.00    +0.000 C 
ATOM      3  O   UNL     1     -14.453 -43.500  24.144  0.00  0.00    +0.000 OA
BRANCH   2   4
ATOM      4  C   UNL     1     -16.136 -42.969  25.536  0.00  0.00    +0.000 A 
ATOM      5  C   UNL     1     -16.530 -42.745  26.810  0.00  0.00    +0.000 A 
ATOM      6  C   UNL     1     -17.768 -42.326  27.120  0.00  0.00    +0.000 A 
ATOM      7  C   UNL     1     -18.668 -42.115  26.154  0.00  0.00    +0.000 A 
ATOM      8  C   UNL     1     -18.309 -42.328  24.881  0.00  0.00    +0.000 A 
ATOM      9  C   UNL     1     -17.068 -42.747  24.584  0.00  0.00    +0.000 A 
ENDBRANCH   2   4
ENDBRANCH   1   2
TORSDOF 3
ENDMDL
MODEL 2
REMARK VINA RESULT:     -10.0      0.421      1.198
REMARK  Name = Fragment
REMARK  3 active torsions:
REMARK  status: ('A' for Active; 'I' for Inactive)
REMARK    1  A    between atoms: C_1  and  C_2
REMARK    2  A    between atoms: C_2  and  C_4
REMARK    3  A    between atoms: C_10  and  C_11
REMARK                            x       y       z     vdW  Elec       q    Type
REMARK                         _______ _______ _______ _____ _____    ______ ____
ROOT
ATOM      1  C   UNL     1     -14.257 -43.777  26.205  0.00  0.00    +0.000 C 
ATOM     10  C   UNL     1     -13.898 -45.005  26.636  0.00  0.00    +0.000 C 
ENDROOT
BRANCH  10  11
ATOM     11  C   UNL     1     -13.188 -45.324  27.743  0.00  0.00    +0.000 A 
ATOM     12  C   UNL     1     -12.074 -46.074  27.603  0.00  0.00    +0.000 A 
ATOM     13  C   UNL     1     -11.316 -46.431  28.653  0.00  0.00    +0.000 A 
ATOM     14  C   UNL     1     -11.660 -46.041  29.888  0.00  0.00    +0.000 A 
ATOM     15  C   UNL     1     -12.761 -45.295  30.056  0.00  0.00    +0.000 A 
ATOM     16  C   UNL     1     -13.509 -44.945  28.997  0.00  0.00    +0.000 A 
ATOM     17 CL   UNL     1     -10.695 -46.493  31.247  0.00  0.00    +0.000 Cl
ENDBRANCH  10  11
BRANCH   1   2
ATOM      2  C   UNL     1     -14.980 -43.536  25.068  0.00  0.00    +0.000 C 
ATOM      3  O   UNL     1     -14.466 -43.779  23.990  0.00  0.00    +0.000 OA
BRANCH   2   4
ATOM      4  C   UNL     1     -16.259 -43.032  25.124  0.00  0.00    +0.000 A 
ATOM      5  C   UNL     1     -16.826 -42.790  26.327  0.00  0.00    +0.000 A 
ATOM      6  C   UNL     1     -18.070 -42.298  26.453  0.00  0.00    +0.000 A 
ATOM      7  C   UNL     1     -18.800 -42.028  25.364  0.00  0.00    +0.000 A 
ATOM      8  C   UNL     1     -18.266 -42.258  24.158  0.00  0.00    +0.000 A 
ATOM      9  C   UNL     1     -17.020 -42.750  24.045  0.00  0.00    +0.000 A 
ENDBRANCH   2   4
ENDBRANCH   1   2
TORSDOF 3
ENDMDL
MODEL 3
REMARK VINA RESULT:      -9.8      3.355      7.309
REMARK  Name = Fragment
REMARK  3 active torsions:
REMARK  status: ('A' for Active; 'I' for Inactive)
REMARK    1  A    between atoms: C_1  and  C_2
REMARK    2  A    between atoms: C_2  and  C_4
REMARK    3  A    between atoms: C_10  and  C_11
REMARK                            x       y       z     vdW  Elec       q    Type
REMARK                         _______ _______ _______ _____ _____    ______ ____
ROOT
ATOM      1  C   UNL     1     -13.344 -45.354  28.281  0.00  0.00    +0.000 C 
ATOM     10  C   UNL     1     -14.356 -44.475  28.111  0.00  0.00    +0.000 C 
ENDROOT
BRANCH  10  11
ATOM     11  C   UNL     1     -14.817 -43.952  26.952  0.00  0.00    +0.000 A 
ATOM     12  C   UNL     1     -14.310 -44.412  25.788  0.00  0.00    +0.000 A 
ATOM     13  C   UNL     1     -14.716 -43.943  24.596  0.00  0.00    +0.000 A 
ATOM     14  C   UNL     1     -15.654 -42.987  24.539  0.00  0.00    +0.000 A 
ATOM     15  C   UNL     1     -16.175 -42.513  25.679  0.00  0.00    +0.000 A 
ATOM     16  C   UNL     1     -15.759 -42.991  26.864  0.00  0.00    +0.000 A 
ATOM     17 CL   UNL     1     -16.186 -42.375  23.014  0.00  0.00    +0.000 Cl
ENDBRANCH  10  11
BRANCH   1   2
ATOM      2  C   UNL     1     -12.936 -45.838  29.494  0.00  0.00    +0.000 C 
ATOM      3  O   UNL     1     -13.776 -46.036  30.354  0.00  0.00    +0.000 OA
BRANCH   2   4
ATOM      4  C   UNL     1     -11.610 -46.101  29.753  0.00  0.00    +0.000 A 
ATOM      5  C   UNL     1     -11.170 -46.105  31.031  0.00  0.00    +0.000 A 
ATOM      6  C   UNL     1      -9.890 -46.354  31.353  0.00  0.00    +0.000 A 
ATOM      7  C   UNL     1      -8.993 -46.612  30.394  0.00  0.00    +0.000 A 
ATOM      8  C   UNL     1      -9.398 -46.615  29.117  0.00  0.00    +0.000 A 
ATOM      9  C   UNL     1     -10.682 -46.365  28.808  0.00  0.00    +0.000 A 
ENDBRANCH   2   4
ENDBRANCH   1   2
TORSDOF 3
ENDMDL
MODEL 4
REMARK VINA RESULT:      -9.6      3.436      7.287
REMARK  Name = Fragment
REMARK  3 active torsions:
REMARK  status: ('A' for Active; 'I' for Inactive)
REMARK    1  A    between atoms: C_1  and  C_2
REMARK    2  A    between atoms: C_2  and  C_4
REMARK    3  A    between atoms: C_10  and  C_11
REMARK                            x       y       z     vdW  Elec       q    Type
REMARK                         _______ _______ _______ _____ _____    ______ ____
ROOT
ATOM      1  C   UNL     1     -13.084 -45.566  28.994  0.00  0.00    +0.000 C 
ATOM     10  C   UNL     1     -14.126 -44.765  28.682  0.00  0.00    +0.000 C 
ENDROOT
BRANCH  10  11
ATOM     11  C   UNL     1     -14.493 -44.315  27.460  0.00  0.00    +0.000 A 
ATOM     12  C   UNL     1     -15.386 -43.305  27.384  0.00  0.00    +0.000 A 
ATOM     13  C   UNL     1     -15.799 -42.804  26.209  0.00  0.00    +0.000 A 
ATOM     14  C   UNL     1     -15.322 -43.308  25.062  0.00  0.00    +0.000 A 
ATOM     15  C   UNL     1     -14.434 -44.311  25.109  0.00  0.00    +0.000 A 
ATOM     16  C   UNL     1     -14.030 -44.803  26.291  0.00  0.00    +0.000 A 
ATOM     17 CL   UNL     1     -15.844 -42.673  23.544  0.00  0.00    +0.000 Cl
ENDBRANCH  10  11
BRANCH   1   2
ATOM      2  C   UNL     1     -12.778 -45.979  30.262  0.00  0.00    +0.000 C 
ATOM      3  O   UNL     1     -13.583 -46.673  30.858  0.00  0.00    +0.000 OA
BRANCH   2   4
ATOM      4  C   UNL     1     -11.593 -45.628  30.865  0.00  0.00    +0.000 A 
ATOM      5  C   UNL     1     -10.510 -46.426  30.721  0.00  0.00    +0.000 A 
ATOM      6  C   UNL     1      -9.324 -46.142  31.282  0.00  0.00    +0.000 A 
ATOM      7  C   UNL     1      -9.176 -45.034  32.018  0.00  0.00    +0.000 A 
ATOM      8  C   UNL     1     -10.229 -44.223  32.180  0.00  0.00    +0.000 A 
ATOM      9  C   UNL     1     -11.411 -44.518  31.613  0.00  0.00    +0.000 A 
ENDBRANCH   2   4
ENDBRANCH   1   2
TORSDOF 3
ENDMDL
MODEL 5
REMARK VINA RESULT:      -9.6      1.253      2.006
REMARK  Name = Fragment
REMARK  3 active torsions:
REMARK  status: ('A' for Active; 'I' for Inactive)
REMARK    1  A    between atoms: C_1  and  C_2
REMARK    2  A    between atoms: C_2  and  C_4
REMARK    3  A    between atoms: C_10  and  C_11
REMARK                            x       y       z     vdW  Elec       q    Type
REMARK                         _______ _______ _______ _____ _____    ______ ____
ROOT
ATOM      1  C   UNL     1     -15.294 -43.651  25.776  0.00  0.00    +0.000 C 
ATOM     10  C   UNL     1     -14.158 -43.287  26.407  0.00  0.00    +0.000 C 
ENDROOT
BRANCH  10  11
ATOM     11  C   UNL     1     -13.261 -44.085  27.031  0.00  0.00    +0.000 A 
ATOM     12  C   UNL     1     -12.205 -43.513  27.649  0.00  0.00    +0.000 A 
ATOM     13  C   UNL     1     -11.273 -44.237  28.290  0.00  0.00    +0.000 A 
ATOM     14  C   UNL     1     -11.375 -45.573  28.328  0.00  0.00    +0.000 A 
ATOM     15  C   UNL     1     -12.413 -46.167  27.723  0.00  0.00    +0.000 A 
ATOM     16  C   UNL     1     -13.338 -45.430  27.087  0.00  0.00    +0.000 A 
ATOM     17 CL   UNL     1     -10.184 -46.517  29.148  0.00  0.00    +0.000 Cl
ENDBRANCH  10  11
BRANCH   1   2
ATOM      2  C   UNL     1     -16.154 -42.778  25.165  0.00  0.00    +0.000 C 
ATOM      3  O   UNL     1     -15.826 -42.289  24.099  0.00  0.00    +0.000 OA
BRANCH   2   4
ATOM      4  C   UNL     1     -17.365 -42.450  25.731  0.00  0.00    +0.000 A 
ATOM      5  C   UNL     1     -18.387 -42.063  24.935  0.00  0.00    +0.000 A 
ATOM      6  C   UNL     1     -19.594 -41.729  25.422  0.00  0.00    +0.000 A 
ATOM      7  C   UNL     1     -19.823 -41.770  26.739  0.00  0.00    +0.000 A 
ATOM      8  C   UNL     1     -18.830 -42.149  27.554  0.00  0.00    +0.000 A 
ATOM      9  C   UNL     1     -17.627 -42.481  27.055  0.00  0.00    +0.000 A 
ENDBRANCH   2   4
ENDBRANCH   1   2
TORSDOF 3
ENDMDL
MODEL 6
REMARK VINA RESULT:      -9.3      3.432      7.075
REMARK  Name = Fragment
REMARK  3 active torsions:
REMARK  status: ('A' for Active; 'I' for Inactive)
REMARK    1  A    between atoms: C_1  and  C_2
REMARK    2  A    between atoms: C_2  and  C_4
REMARK    3  A    between atoms: C_10  and  C_11
REMARK                            x       y       z     vdW  Elec       q    Type
REMARK                         _______ _______ _______ _____ _____    ______ ____
ROOT
ATOM      1  C   UNL     1     -15.386 -43.091  26.438  0.00  0.00    +0.000 C 
ATOM     10  C   UNL     1     -16.408 -42.791  25.609  0.00  0.00    +0.000 C 
ENDROOT
BRANCH  10  11
ATOM     11  C   UNL     1     -17.658 -42.391  25.941  0.00  0.00    +0.000 A 
ATOM     12  C   UNL     1     -18.505 -42.029  24.954  0.00  0.00    +0.000 A 
ATOM     13  C   UNL     1     -19.760 -41.621  25.202  0.00  0.00    +0.000 A 
ATOM     14  C   UNL     1     -20.206 -41.565  26.465  0.00  0.00    +0.000 A 
ATOM     15  C   UNL     1     -19.387 -41.919  27.464  0.00  0.00    +0.000 A 
ATOM     16  C   UNL     1     -18.134 -42.325  27.201  0.00  0.00    +0.000 A 
ATOM     17 CL   UNL     1     -21.818 -41.042  26.799  0.00  0.00    +0.000 Cl
ENDBRANCH  10  11
BRANCH   1   2
ATOM      2  C   UNL     1     -14.144 -43.490  26.022  0.00  0.00    +0.000 C 
ATOM      3  O   UNL     1     -13.757 -43.135  24.923  0.00  0.00    +0.000 OA
BRANCH   2   4
ATOM      4  C   UNL     1     -13.339 -44.276  26.815  0.00  0.00    +0.000 A 
ATOM      5  C   UNL     1     -12.397 -43.693  27.590  0.00  0.00    +0.000 A 
ATOM      6  C   UNL     1     -11.579 -44.400  28.387  0.00  0.00    +0.000 A 
ATOM      7  C   UNL     1     -11.677 -45.734  28.437  0.00  0.00    +0.000 A 
ATOM      8  C   UNL     1     -12.600 -46.341  27.681  0.00  0.00    +0.000 A 
ATOM      9  C   UNL     1     -13.413 -45.622  26.888  0.00  0.00    +0.000 A 
ENDBRANCH   2   4
ENDBRANCH   1   2
TORSDOF 3
ENDMDL
MODEL 7
REMARK VINA RESULT:      -8.3      3.051      4.965
REMARK  Name = Fragment
REMARK  3 active torsions:
REMARK  status: ('A' for Active; 'I' for Inactive)
REMARK    1  A    between atoms: C_1  and  C_2
REMARK    2  A    between atoms: C_2  and  C_4
REMARK    3  A    between atoms: C_10  and  C_11
REMARK                            x       y       z     vdW  Elec       q    Type
REMARK                         _______ _______ _______ _____ _____    ______ ____
ROOT
ATOM      1  C   UNL     1     -16.890 -42.034  23.114  0.00  0.00    +0.000 C 
ATOM     10  C   UNL     1     -15.724 -41.891  23.780  0.00  0.00    +0.000 C 
ENDROOT
BRANCH  10  11
ATOM     11  C   UNL     1     -15.137 -42.769  24.626  0.00  0.00    +0.000 A 
ATOM     12  C   UNL     1     -14.845 -44.007  24.173  0.00  0.00    +0.000 A 
ATOM     13  C   UNL     1     -14.263 -44.934  24.951  0.00  0.00    +0.000 A 
ATOM     14  C   UNL     1     -13.953 -44.640  26.222  0.00  0.00    +0.000 A 
ATOM     15  C   UNL     1     -14.232 -43.419  26.697  0.00  0.00    +0.000 A 
ATOM     16  C   UNL     1     -14.814 -42.502  25.908  0.00  0.00    +0.000 A 
ATOM     17 CL   UNL     1     -13.204 -45.822  27.234  0.00  0.00    +0.000 Cl
ENDBRANCH  10  11
BRANCH   1   2
ATOM      2  C   UNL     1     -17.420 -41.093  22.272  0.00  0.00    +0.000 C 
ATOM      3  O   UNL     1     -16.703 -40.613  21.412  0.00  0.00    +0.000 OA
BRANCH   2   4
ATOM      4  C   UNL     1     -18.730 -40.689  22.380  0.00  0.00    +0.000 A 
ATOM      5  C   UNL     1     -19.240 -39.831  21.468  0.00  0.00    +0.000 A 
ATOM      6  C   UNL     1     -20.510 -39.397  21.516  0.00  0.00    +0.000 A 
ATOM      7  C   UNL     1     -21.327 -39.812  22.491  0.00  0.00    +0.000 A 
ATOM      8  C   UNL     1     -20.852 -40.663  23.409  0.00  0.00    +0.000 A 
ATOM      9  C   UNL     1     -19.579 -41.090  23.351  0.00  0.00    +0.000 A 
ENDBRANCH   2   4
ENDBRANCH   1   2
TORSDOF 3
ENDMDL
MODEL 8
REMARK VINA RESULT:      -8.2      3.938      7.616
REMARK  Name = Fragment
REMARK  3 active torsions:
REMARK  status: ('A' for Active; 'I' for Inactive)
REMARK    1  A    between atoms: C_1  and  C_2
REMARK    2  A    between atoms: C_2  and  C_4
REMARK    3  A    between atoms: C_10  and  C_11
REMARK                            x       y       z     vdW  Elec       q    Type
REMARK                         _______ _______ _______ _____ _____    ______ ____
ROOT
ATOM      1  C   UNL     1     -16.752 -42.601  25.546  0.00  0.00    +0.000 C 
ATOM     10  C   UNL     1     -17.893 -42.507  24.829  0.00  0.00    +0.000 C 
ENDROOT
BRANCH  10  11
ATOM     11  C   UNL     1     -19.065 -41.944  25.202  0.00  0.00    +0.000 A 
ATOM     12  C   UNL     1     -19.907 -41.506  24.242  0.00  0.00    +0.000 A 
ATOM     13  C   UNL     1     -21.088 -40.937  24.531  0.00  0.00    +0.000 A 
ATOM     14  C   UNL     1     -21.462 -40.789  25.810  0.00  0.00    +0.000 A 
ATOM     15  C   UNL     1     -20.646 -41.215  26.784  0.00  0.00    +0.000 A 
ATOM     16  C   UNL     1     -19.468 -41.783  26.479  0.00  0.00    +0.000 A 
ATOM     17 CL   UNL     1     -22.978 -40.058  26.197  0.00  0.00    +0.000 Cl
ENDBRANCH  10  11
BRANCH   1   2
ATOM      2  C   UNL     1     -15.601 -43.190  25.095  0.00  0.00    +0.000 C 
ATOM      3  O   UNL     1     -15.269 -43.007  23.938  0.00  0.00    +0.000 OA
BRANCH   2   4
ATOM      4  C   UNL     1     -14.825 -43.973  25.919  0.00  0.00    +0.000 A 
ATOM      5  C   UNL     1     -14.771 -43.698  27.242  0.00  0.00    +0.000 A 
ATOM      6  C   UNL     1     -14.035 -44.422  28.100  0.00  0.00    +0.000 A 
ATOM      7  C   UNL     1     -13.316 -45.461  27.659  0.00  0.00    +0.000 A 
ATOM      8  C   UNL     1     -13.348 -45.759  26.354  0.00  0.00    +0.000 A 
ATOM      9  C   UNL     1     -14.089 -45.027  25.505  0.00  0.00    +0.000 A 
ENDBRANCH   2   4
ENDBRANCH   1   2
TORSDOF 3
ENDMDL
MODEL 9
REMARK VINA RESULT:      -8.2      2.701      4.501
REMARK  Name = Fragment
REMARK  3 active torsions:
REMARK  status: ('A' for Active; 'I' for Inactive)
REMARK    1  A    between atoms: C_1  and  C_2
REMARK    2  A    between atoms: C_2  and  C_4
REMARK    3  A    between atoms: C_10  and  C_11
REMARK                            x       y       z     vdW  Elec       q    Type
REMARK                         _______ _______ _______ _____ _____    ______ ____
ROOT
ATOM      1  C   UNL     1     -18.224 -42.444  24.952  0.00  0.00    +0.000 C 
ATOM     10  C   UNL     1     -16.908 -42.480  24.650  0.00  0.00    +0.000 C 
ENDROOT
BRANCH  10  11
ATOM     11  C   UNL     1     -15.934 -43.192  25.262  0.00  0.00    +0.000 A 
ATOM     12  C   UNL     1     -15.823 -43.116  26.606  0.00  0.00    +0.000 A 
ATOM     13  C   UNL     1     -14.883 -43.792  27.285  0.00  0.00    +0.000 A 
ATOM     14  C   UNL     1     -14.015 -44.574  26.627  0.00  0.00    +0.000 A 
ATOM     15  C   UNL     1     -14.102 -44.668  25.293  0.00  0.00    +0.000 A 
ATOM     16  C   UNL     1     -15.048 -43.985  24.626  0.00  0.00    +0.000 A 
ATOM     17 CL   UNL     1     -12.801 -45.449  27.487  0.00  0.00    +0.000 Cl
ENDBRANCH  10  11
BRANCH   1   2
ATOM      2  C   UNL     1     -19.151 -41.693  24.280  0.00  0.00    +0.000 C 
ATOM      3  O   UNL     1     -18.943 -41.420  23.112  0.00  0.00    +0.000 OA
BRANCH   2   4
ATOM      4  C   UNL     1     -20.298 -41.250  24.898  0.00  0.00    +0.000 A 
ATOM      5  C   UNL     1     -20.402 -41.327  26.244  0.00  0.00    +0.000 A 
ATOM      6  C   UNL     1     -21.492 -40.912  26.908  0.00  0.00    +0.000 A 
ATOM      7  C   UNL     1     -22.532 -40.399  26.241  0.00  0.00    +0.000 A 
ATOM      8  C   UNL     1     -22.460 -40.309  24.907  0.00  0.00    +0.000 A 
ATOM      9  C   UNL     1     -21.364 -40.727  24.253  0.00  0.00    +0.000 A 
ENDBRANCH   2   4
ENDBRANCH   1   2
TORSDOF 3
ENDMDL
MODEL 10
REMARK VINA RESULT:      -8.1      5.714      9.445
REMARK  Name = Fragment
REMARK  3 active torsions:
REMARK  status: ('A' for Active; 'I' for Inactive)
REMARK    1  A    between atoms: C_1  and  C_2
REMARK    2  A    between atoms: C_2  and  C_4
REMARK    3  A    between atoms: C_10  and  C_11
REMARK                            x       y       z     vdW  Elec       q    Type
REMARK                         _______ _______ _______ _____ _____    ______ ____
ROOT
ATOM      1  C   UNL     1     -18.646 -41.782  23.329  0.00  0.00    +0.000 C 
ATOM     10  C   UNL     1     -18.485 -41.010  22.233  0.00  0.00    +0.000 C 
ENDROOT
BRANCH  10  11
ATOM     11  C   UNL     1     -19.408 -40.235  21.619  0.00  0.00    +0.000 A 
ATOM     12  C   UNL     1     -20.398 -39.696  22.363  0.00  0.00    +0.000 A 
ATOM     13  C   UNL     1     -21.351 -38.916  21.827  0.00  0.00    +0.000 A 
ATOM     14  C   UNL     1     -21.337 -38.652  20.512  0.00  0.00    +0.000 A 
ATOM     15  C   UNL     1     -20.366 -39.174  19.751  0.00  0.00    +0.000 A 
ATOM     16  C   UNL     1     -19.419 -39.953  20.301  0.00  0.00    +0.000 A 
ATOM     17 CL   UNL     1     -22.556 -37.651  19.810  0.00  0.00    +0.000 Cl
ENDBRANCH  10  11
BRANCH   1   2
ATOM      2  C   UNL     1     -17.657 -42.542  23.893  0.00  0.00    +0.000 C 
ATOM      3  O   UNL     1     -16.966 -43.232  23.164  0.00  0.00    +0.000 OA
BRANCH   2   4
ATOM      4  C   UNL     1     -17.434 -42.538  25.251  0.00  0.00    +0.000 A 
ATOM      5  C   UNL     1     -18.459 -42.274  26.092  0.00  0.00    +0.000 A 
ATOM      6  C   UNL     1     -18.310 -42.254  27.427  0.00  0.00    +0.000 A 
ATOM      7  C   UNL     1     -17.114 -42.500  27.974  0.00  0.00    +0.000 A 
ATOM      8  C   UNL     1     -16.078 -42.765  27.167  0.00  0.00    +0.000 A 
ATOM      9  C   UNL     1     -16.240 -42.782  25.833  0.00  0.00    +0.000 A 
ENDBRANCH   2   4
ENDBRANCH   1   2
TORSDOF 3
ENDMDL
