MODEL 1
REMARK VINA RESULT:      -9.9      0.000      0.000
REMARK  Name = Fragment
REMARK  4 active torsions:
REMARK  status: ('A' for Active; 'I' for Inactive)
REMARK    1  A    between atoms: C_1  and  C_2
REMARK    2  A    between atoms: C_2  and  C_4
REMARK    3  A    between atoms: C_7  and  C_17
REMARK    4  A    between atoms: C_10  and  C_11
REMARK                            x       y       z     vdW  Elec       q    Type
REMARK                         _______ _______ _______ _____ _____    ______ ____
ROOT
ATOM      2  C   UNL     1     -15.309 -43.259  24.998  0.00  0.00    +0.000 C 
ATOM      3  O   UNL     1     -15.168 -43.416  23.800  0.00  0.00    +0.000 OA
ENDROOT
BRANCH   2   4
ATOM      4  C   UNL     1     -16.517 -42.832  25.498  0.00  0.00    +0.000 A 
ATOM      5  C   UNL     1     -17.527 -42.546  24.646  0.00  0.00    +0.000 A 
ATOM      6  C   UNL     1     -18.731 -42.125  25.066  0.00  0.00    +0.000 A 
ATOM      7  C   UNL     1     -18.977 -41.970  26.374  0.00  0.00    +0.000 A 
ATOM      8  C   UNL     1     -17.994 -42.246  27.243  0.00  0.00    +0.000 A 
ATOM      9  C   UNL     1     -16.793 -42.667  26.811  0.00  0.00    +0.000 A 
BRANCH   7  17
ATOM     17  C   UNL     1     -20.154 -41.558  26.795  0.00  0.00    +0.000 C 
ATOM     18  N   UNL     1     -21.190 -41.192  27.162  0.00  0.00    +0.000 NA
ENDBRANCH   7  17
ENDBRANCH   2   4
BRANCH   2   1
ATOM      1  C   UNL     1     -14.245 -43.516  25.823  0.00  0.00    +0.000 C 
ATOM     10  C   UNL     1     -13.987 -44.716  26.384  0.00  0.00    +0.000 C 
BRANCH  10  11
ATOM     11  C   UNL     1     -12.964 -45.048  27.204  0.00  0.00    +0.000 A 
ATOM     12  C   UNL     1     -12.320 -44.064  27.868  0.00  0.00    +0.000 A 
ATOM     13  C   UNL     1     -11.296 -44.315  28.699  0.00  0.00    +0.000 A 
ATOM     14  C   UNL     1     -10.883 -45.575  28.892  0.00  0.00    +0.000 A 
ATOM     15  C   UNL     1     -11.505 -46.570  28.246  0.00  0.00    +0.000 A 
ATOM     16  C   UNL     1     -12.528 -46.306  27.417  0.00  0.00    +0.000 A 
ENDBRANCH  10  11
ENDBRANCH   2   1
TORSDOF 4
ENDMDL
MODEL 2
REMARK VINA RESULT:      -9.8      0.894      1.425
REMARK  Name = Fragment
REMARK  4 active torsions:
REMARK  status: ('A' for Active; 'I' for Inactive)
REMARK    1  A    between atoms: C_1  and  C_2
REMARK    2  A    between atoms: C_2  and  C_4
REMARK    3  A    between atoms: C_7  and  C_17
REMARK    4  A    between atoms: C_10  and  C_11
REMARK                            x       y       z     vdW  Elec       q    Type
REMARK                         _______ _______ _______ _____ _____    ______ ____
ROOT
ATOM      2  C   UNL     1     -14.801 -43.474  25.424  0.00  0.00    +0.000 C 
ATOM      3  O   UNL     1     -14.452 -43.577  24.262  0.00  0.00    +0.000 OA
ENDROOT
BRANCH   2   4
ATOM      4  C   UNL     1     -16.065 -43.023  25.725  0.00  0.00    +0.000 A 
ATOM      5  C   UNL     1     -16.403 -42.799  27.014  0.00  0.00    +0.000 A 
ATOM      6  C   UNL     1     -17.619 -42.359  27.378  0.00  0.00    +0.000 A 
ATOM      7  C   UNL     1     -18.559 -42.123  26.453  0.00  0.00    +0.000 A 
ATOM      8  C   UNL     1     -18.252 -42.337  25.166  0.00  0.00    +0.000 A 
ATOM      9  C   UNL     1     -17.032 -42.777  24.814  0.00  0.00    +0.000 A 
BRANCH   7  17
ATOM     17  C   UNL     1     -19.753 -41.691  26.799  0.00  0.00    +0.000 C 
ATOM     18  N   UNL     1     -20.802 -41.307  27.106  0.00  0.00    +0.000 NA
ENDBRANCH   7  17
ENDBRANCH   2   4
BRANCH   2   1
ATOM      1  C   UNL     1     -13.910 -43.815  26.408  0.00  0.00    +0.000 C 
ATOM     10  C   UNL     1     -13.716 -45.071  26.860  0.00  0.00    +0.000 C 
BRANCH  10  11
ATOM     11  C   UNL     1     -12.861 -45.487  27.822  0.00  0.00    +0.000 A 
ATOM     12  C   UNL     1     -13.146 -45.197  29.110  0.00  0.00    +0.000 A 
ATOM     13  C   UNL     1     -12.346 -45.576  30.120  0.00  0.00    +0.000 A 
ATOM     14  C   UNL     1     -11.225 -46.263  29.866  0.00  0.00    +0.000 A 
ATOM     15  C   UNL     1     -10.919 -46.564  28.596  0.00  0.00    +0.000 A 
ATOM     16  C   UNL     1     -11.727 -46.180  27.595  0.00  0.00    +0.000 A 
ENDBRANCH  10  11
ENDBRANCH   2   1
TORSDOF 4
ENDMDL
MODEL 3
REMARK VINA RESULT:      -9.7      4.624      8.124
REMARK  Name = Fragment
REMARK  4 active torsions:
REMARK  status: ('A' for Active; 'I' for Inactive)
REMARK    1  A    between atoms: C_1  and  C_2
REMARK    2  A    between atoms: C_2  and  C_4
REMARK    3  A    between atoms: C_7  and  C_17
REMARK    4  A    between atoms: C_10  and  C_11
REMARK                            x       y       z     vdW  Elec       q    Type
REMARK                         _______ _______ _______ _____ _____    ______ ____
ROOT
ATOM      2  C   UNL     1     -13.161 -45.677  30.501  0.00  0.00    +0.000 C 
ATOM      3  O   UNL     1     -13.613 -46.744  30.873  0.00  0.00    +0.000 OA
ENDROOT
BRANCH   2   4
ATOM      4  C   UNL     1     -11.966 -45.223  31.007  0.00  0.00    +0.000 A 
ATOM      5  C   UNL     1     -11.840 -43.924  31.357  0.00  0.00    +0.000 A 
ATOM      6  C   UNL     1     -10.702 -43.415  31.857  0.00  0.00    +0.000 A 
ATOM      7  C   UNL     1      -9.628 -44.198  32.030  0.00  0.00    +0.000 A 
ATOM      8  C   UNL     1      -9.723 -45.491  31.692  0.00  0.00    +0.000 A 
ATOM      9  C   UNL     1     -10.867 -45.989  31.193  0.00  0.00    +0.000 A 
BRANCH   7  17
ATOM     17  C   UNL     1      -8.508 -43.709  32.520  0.00  0.00    +0.000 C 
ATOM     18  N   UNL     1      -7.523 -43.274  32.947  0.00  0.00    +0.000 NA
ENDBRANCH   7  17
ENDBRANCH   2   4
BRANCH   2   1
ATOM      1  C   UNL     1     -13.867 -44.952  29.577  0.00  0.00    +0.000 C 
ATOM     10  C   UNL     1     -13.699 -45.049  28.241  0.00  0.00    +0.000 C 
BRANCH  10  11
ATOM     11  C   UNL     1     -14.353 -44.372  27.270  0.00  0.00    +0.000 A 
ATOM     12  C   UNL     1     -14.075 -44.661  25.980  0.00  0.00    +0.000 A 
ATOM     13  C   UNL     1     -14.682 -44.032  24.961  0.00  0.00    +0.000 A 
ATOM     14  C   UNL     1     -15.596 -43.084  25.207  0.00  0.00    +0.000 A 
ATOM     15  C   UNL     1     -15.890 -42.778  26.478  0.00  0.00    +0.000 A 
ATOM     16  C   UNL     1     -15.276 -43.414  27.489  0.00  0.00    +0.000 A 
ENDBRANCH  10  11
ENDBRANCH   2   1
TORSDOF 4
ENDMDL
MODEL 4
REMARK VINA RESULT:      -9.3      3.114      7.280
REMARK  Name = Fragment
REMARK  4 active torsions:
REMARK  status: ('A' for Active; 'I' for Inactive)
REMARK    1  A    between atoms: C_1  and  C_2
REMARK    2  A    between atoms: C_2  and  C_4
REMARK    3  A    between atoms: C_7  and  C_17
REMARK    4  A    between atoms: C_10  and  C_11
REMARK                            x       y       z     vdW  Elec       q    Type
REMARK                         _______ _______ _______ _____ _____    ______ ____
ROOT
ATOM      2  C   UNL     1     -14.185 -43.411  25.968  0.00  0.00    +0.000 C 
ATOM      3  O   UNL     1     -13.812 -43.130  24.844  0.00  0.00    +0.000 OA
ENDROOT
BRANCH   2   4
ATOM      4  C   UNL     1     -13.352 -44.107  26.813  0.00  0.00    +0.000 A 
ATOM      5  C   UNL     1     -12.382 -43.448  27.485  0.00  0.00    +0.000 A 
ATOM      6  C   UNL     1     -11.536 -44.064  28.326  0.00  0.00    +0.000 A 
ATOM      7  C   UNL     1     -11.628 -45.386  28.531  0.00  0.00    +0.000 A 
ATOM      8  C   UNL     1     -12.580 -46.066  27.879  0.00  0.00    +0.000 A 
ATOM      9  C   UNL     1     -13.421 -45.438  27.040  0.00  0.00    +0.000 A 
BRANCH   7  17
ATOM     17  C   UNL     1     -10.803 -45.999  29.354  0.00  0.00    +0.000 C 
ATOM     18  N   UNL     1     -10.081 -46.543  30.078  0.00  0.00    +0.000 NA
ENDBRANCH   7  17
ENDBRANCH   2   4
BRANCH   2   1
ATOM      1  C   UNL     1     -15.438 -43.022  26.360  0.00  0.00    +0.000 C 
ATOM     10  C   UNL     1     -16.460 -42.774  25.514  0.00  0.00    +0.000 C 
BRANCH  10  11
ATOM     11  C   UNL     1     -17.719 -42.387  25.821  0.00  0.00    +0.000 A 
ATOM     12  C   UNL     1     -18.089 -42.356  27.120  0.00  0.00    +0.000 A 
ATOM     13  C   UNL     1     -19.321 -41.984  27.503  0.00  0.00    +0.000 A 
ATOM     14  C   UNL     1     -20.229 -41.628  26.584  0.00  0.00    +0.000 A 
ATOM     15  C   UNL     1     -19.888 -41.650  25.289  0.00  0.00    +0.000 A 
ATOM     16  C   UNL     1     -18.653 -42.024  24.919  0.00  0.00    +0.000 A 
ENDBRANCH  10  11
ENDBRANCH   2   1
TORSDOF 4
ENDMDL
MODEL 5
REMARK VINA RESULT:      -8.2      2.703      7.094
REMARK  Name = Fragment
REMARK  4 active torsions:
REMARK  status: ('A' for Active; 'I' for Inactive)
REMARK    1  A    between atoms: C_1  and  C_2
REMARK    2  A    between atoms: C_2  and  C_4
REMARK    3  A    between atoms: C_7  and  C_17
REMARK    4  A    between atoms: C_10  and  C_11
REMARK                            x       y       z     vdW  Elec       q    Type
REMARK                         _______ _______ _______ _____ _____    ______ ____
ROOT
ATOM      2  C   UNL     1     -16.049 -42.511  24.150  0.00  0.00    +0.000 C 
ATOM      3  O   UNL     1     -15.426 -42.227  23.144  0.00  0.00    +0.000 OA
ENDROOT
BRANCH   2   4
ATOM      4  C   UNL     1     -15.429 -43.190  25.173  0.00  0.00    +0.000 A 
ATOM      5  C   UNL     1     -14.635 -44.246  24.887  0.00  0.00    +0.000 A 
ATOM      6  C   UNL     1     -14.001 -44.953  25.837  0.00  0.00    +0.000 A 
ATOM      7  C   UNL     1     -14.137 -44.627  27.129  0.00  0.00    +0.000 A 
ATOM      8  C   UNL     1     -14.918 -43.584  27.443  0.00  0.00    +0.000 A 
ATOM      9  C   UNL     1     -15.548 -42.884  26.484  0.00  0.00    +0.000 A 
BRANCH   7  17
ATOM     17  C   UNL     1     -13.520 -45.314  28.067  0.00  0.00    +0.000 C 
ATOM     18  N   UNL     1     -12.972 -45.916  28.891  0.00  0.00    +0.000 NA
ENDBRANCH   7  17
ENDBRANCH   2   4
BRANCH   2   1
ATOM      1  C   UNL     1     -17.365 -42.140  24.233  0.00  0.00    +0.000 C 
ATOM     10  C   UNL     1     -18.057 -42.035  25.386  0.00  0.00    +0.000 C 
BRANCH  10  11
ATOM     11  C   UNL     1     -19.351 -41.677  25.550  0.00  0.00    +0.000 A 
ATOM     12  C   UNL     1     -20.106 -41.455  24.453  0.00  0.00    +0.000 A 
ATOM     13  C   UNL     1     -21.398 -41.097  24.535  0.00  0.00    +0.000 A 
ATOM     14  C   UNL     1     -21.977 -40.950  25.734  0.00  0.00    +0.000 A 
ATOM     15  C   UNL     1     -21.250 -41.164  26.839  0.00  0.00    +0.000 A 
ATOM     16  C   UNL     1     -19.960 -41.522  26.744  0.00  0.00    +0.000 A 
ENDBRANCH  10  11
ENDBRANCH   2   1
TORSDOF 4
ENDMDL
MODEL 6
REMARK VINA RESULT:      -8.0      3.980      8.381
REMARK  Name = Fragment
REMARK  4 active torsions:
REMARK  status: ('A' for Active; 'I' for Inactive)
REMARK    1  A    between atoms: C_1  and  C_2
REMARK    2  A    between atoms: C_2  and  C_4
REMARK    3  A    between atoms: C_7  and  C_17
REMARK    4  A    between atoms: C_10  and  C_11
REMARK                            x       y       z     vdW  Elec       q    Type
REMARK                         _______ _______ _______ _____ _____    ______ ____
ROOT
ATOM      2  C   UNL     1     -18.591 -42.605  24.419  0.00  0.00    +0.000 C 
ATOM      3  O   UNL     1     -19.518 -43.145  24.994  0.00  0.00    +0.000 OA
ENDROOT
BRANCH   2   4
ATOM      4  C   UNL     1     -17.318 -42.694  24.932  0.00  0.00    +0.000 A 
ATOM      5  C   UNL     1     -17.133 -42.638  26.270  0.00  0.00    +0.000 A 
ATOM      6  C   UNL     1     -15.919 -42.720  26.838  0.00  0.00    +0.000 A 
ATOM      7  C   UNL     1     -14.824 -42.863  26.078  0.00  0.00    +0.000 A 
ATOM      8  C   UNL     1     -14.976 -42.922  24.748  0.00  0.00    +0.000 A 
ATOM      9  C   UNL     1     -16.197 -42.839  24.191  0.00  0.00    +0.000 A 
BRANCH   7  17
ATOM     17  C   UNL     1     -13.629 -42.944  26.625  0.00  0.00    +0.000 C 
ATOM     18  N   UNL     1     -12.580 -43.013  27.110  0.00  0.00    +0.000 NA
ENDBRANCH   7  17
ENDBRANCH   2   4
BRANCH   2   1
ATOM      1  C   UNL     1     -18.848 -41.915  23.264  0.00  0.00    +0.000 C 
ATOM     10  C   UNL     1     -19.697 -40.870  23.172  0.00  0.00    +0.000 C 
BRANCH  10  11
ATOM     11  C   UNL     1     -20.003 -40.140  22.075  0.00  0.00    +0.000 A 
ATOM     12  C   UNL     1     -21.078 -39.324  22.118  0.00  0.00    +0.000 A 
ATOM     13  C   UNL     1     -21.445 -38.570  21.070  0.00  0.00    +0.000 A 
ATOM     14  C   UNL     1     -20.736 -38.612  19.934  0.00  0.00    +0.000 A 
ATOM     15  C   UNL     1     -19.665 -39.413  19.864  0.00  0.00    +0.000 A 
ATOM     16  C   UNL     1     -19.308 -40.163  20.919  0.00  0.00    +0.000 A 
ENDBRANCH  10  11
ENDBRANCH   2   1
TORSDOF 4
ENDMDL
MODEL 7
REMARK VINA RESULT:      -8.0      3.691      8.114
REMARK  Name = Fragment
REMARK  4 active torsions:
REMARK  status: ('A' for Active; 'I' for Inactive)
REMARK    1  A    between atoms: C_1  and  C_2
REMARK    2  A    between atoms: C_2  and  C_4
REMARK    3  A    between atoms: C_7  and  C_17
REMARK    4  A    between atoms: C_10  and  C_11
REMARK                            x       y       z     vdW  Elec       q    Type
REMARK                         _______ _______ _______ _____ _____    ______ ____
ROOT
ATOM      2  C   UNL     1     -17.803 -42.356  23.662  0.00  0.00    +0.000 C 
ATOM      3  O   UNL     1     -17.230 -43.075  22.864  0.00  0.00    +0.000 OA
ENDROOT
BRANCH   2   4
ATOM      4  C   UNL     1     -17.491 -42.428  24.999  0.00  0.00    +0.000 A 
ATOM      5  C   UNL     1     -18.457 -42.223  25.922  0.00  0.00    +0.000 A 
ATOM      6  C   UNL     1     -18.221 -42.278  27.243  0.00  0.00    +0.000 A 
ATOM      7  C   UNL     1     -16.990 -42.545  27.701  0.00  0.00    +0.000 A 
ATOM      8  C   UNL     1     -16.011 -42.753  26.809  0.00  0.00    +0.000 A 
ATOM      9  C   UNL     1     -16.259 -42.695  25.490  0.00  0.00    +0.000 A 
BRANCH   7  17
ATOM     17  C   UNL     1     -16.748 -42.601  28.994  0.00  0.00    +0.000 C 
ATOM     18  N   UNL     1     -16.541 -42.652  30.132  0.00  0.00    +0.000 NA
ENDBRANCH   7  17
ENDBRANCH   2   4
BRANCH   2   1
ATOM      1  C   UNL     1     -18.754 -41.487  23.196  0.00  0.00    +0.000 C 
ATOM     10  C   UNL     1     -18.799 -41.008  21.936  0.00  0.00    +0.000 C 
BRANCH  10  11
ATOM     11  C   UNL     1     -19.700 -40.152  21.402  0.00  0.00    +0.000 A 
ATOM     12  C   UNL     1     -20.733 -39.739  22.168  0.00  0.00    +0.000 A 
ATOM     13  C   UNL     1     -21.667 -38.890  21.709  0.00  0.00    +0.000 A 
ATOM     14  C   UNL     1     -21.592 -38.426  20.454  0.00  0.00    +0.000 A 
ATOM     15  C   UNL     1     -20.577 -38.820  19.674  0.00  0.00    +0.000 A 
ATOM     16  C   UNL     1     -19.649 -39.669  20.144  0.00  0.00    +0.000 A 
ENDBRANCH  10  11
ENDBRANCH   2   1
TORSDOF 4
ENDMDL
MODEL 8
REMARK VINA RESULT:      -7.9      4.001      5.654
REMARK  Name = Fragment
REMARK  4 active torsions:
REMARK  status: ('A' for Active; 'I' for Inactive)
REMARK    1  A    between atoms: C_1  and  C_2
REMARK    2  A    between atoms: C_2  and  C_4
REMARK    3  A    between atoms: C_7  and  C_17
REMARK    4  A    between atoms: C_10  and  C_11
REMARK                            x       y       z     vdW  Elec       q    Type
REMARK                         _______ _______ _______ _____ _____    ______ ____
ROOT
ATOM      2  C   UNL     1     -19.657 -41.535  23.936  0.00  0.00    +0.000 C 
ATOM      3  O   UNL     1     -20.478 -41.738  24.811  0.00  0.00    +0.000 OA
ENDROOT
BRANCH   2   4
ATOM      4  C   UNL     1     -19.976 -40.732  22.867  0.00  0.00    +0.000 A 
ATOM      5  C   UNL     1     -21.050 -39.914  22.944  0.00  0.00    +0.000 A 
ATOM      6  C   UNL     1     -21.418 -39.104  21.938  0.00  0.00    +0.000 A 
ATOM      7  C   UNL     1     -20.715 -39.079  20.797  0.00  0.00    +0.000 A 
ATOM      8  C   UNL     1     -19.645 -39.878  20.691  0.00  0.00    +0.000 A 
ATOM      9  C   UNL     1     -19.287 -40.685  21.705  0.00  0.00    +0.000 A 
BRANCH   7  17
ATOM     17  C   UNL     1     -21.068 -38.288  19.805  0.00  0.00    +0.000 C 
ATOM     18  N   UNL     1     -21.375 -37.596  18.929  0.00  0.00    +0.000 NA
ENDBRANCH   7  17
ENDBRANCH   2   4
BRANCH   2   1
ATOM      1  C   UNL     1     -18.424 -42.122  24.046  0.00  0.00    +0.000 C 
ATOM     10  C   UNL     1     -17.756 -42.284  25.207  0.00  0.00    +0.000 C 
BRANCH  10  11
ATOM     11  C   UNL     1     -16.542 -42.850  25.397  0.00  0.00    +0.000 A 
ATOM     12  C   UNL     1     -16.061 -42.945  26.655  0.00  0.00    +0.000 A 
ATOM     13  C   UNL     1     -14.865 -43.494  26.923  0.00  0.00    +0.000 A 
ATOM     14  C   UNL     1     -14.108 -43.969  25.925  0.00  0.00    +0.000 A 
ATOM     15  C   UNL     1     -14.561 -43.887  24.667  0.00  0.00    +0.000 A 
ATOM     16  C   UNL     1     -15.759 -43.336  24.412  0.00  0.00    +0.000 A 
ENDBRANCH  10  11
ENDBRANCH   2   1
TORSDOF 4
ENDMDL
MODEL 9
REMARK VINA RESULT:      -7.9      3.365      7.798
REMARK  Name = Fragment
REMARK  4 active torsions:
REMARK  status: ('A' for Active; 'I' for Inactive)
REMARK    1  A    between atoms: C_1  and  C_2
REMARK    2  A    between atoms: C_2  and  C_4
REMARK    3  A    between atoms: C_7  and  C_17
REMARK    4  A    between atoms: C_10  and  C_11
REMARK                            x       y       z     vdW  Elec       q    Type
REMARK                         _______ _______ _______ _____ _____    ______ ____
ROOT
ATOM      2  C   UNL     1     -15.965 -41.969  23.539  0.00  0.00    +0.000 C 
ATOM      3  O   UNL     1     -15.154 -41.588  22.715  0.00  0.00    +0.000 OA
ENDROOT
BRANCH   2   4
ATOM      4  C   UNL     1     -15.537 -42.595  24.686  0.00  0.00    +0.000 A 
ATOM      5  C   UNL     1     -16.257 -42.469  25.823  0.00  0.00    +0.000 A 
ATOM      6  C   UNL     1     -15.896 -43.053  26.977  0.00  0.00    +0.000 A 
ATOM      7  C   UNL     1     -14.783 -43.798  27.041  0.00  0.00    +0.000 A 
ATOM      8  C   UNL     1     -14.049 -43.941  25.929  0.00  0.00    +0.000 A 
ATOM      9  C   UNL     1     -14.420 -43.352  24.780  0.00  0.00    +0.000 A 
BRANCH   7  17
ATOM     17  C   UNL     1     -14.421 -44.375  28.168  0.00  0.00    +0.000 C 
ATOM     18  N   UNL     1     -14.107 -44.885  29.159  0.00  0.00    +0.000 NA
ENDBRANCH   7  17
ENDBRANCH   2   4
BRANCH   2   1
ATOM      1  C   UNL     1     -17.297 -41.759  23.294  0.00  0.00    +0.000 C 
ATOM     10  C   UNL     1     -17.777 -40.933  22.341  0.00  0.00    +0.000 C 
BRANCH  10  11
ATOM     11  C   UNL     1     -19.069 -40.673  22.040  0.00  0.00    +0.000 A 
ATOM     12  C   UNL     1     -20.014 -40.910  22.976  0.00  0.00    +0.000 A 
ATOM     13  C   UNL     1     -21.317 -40.677  22.750  0.00  0.00    +0.000 A 
ATOM     14  C   UNL     1     -21.716 -40.195  21.566  0.00  0.00    +0.000 A 
ATOM     15  C   UNL     1     -20.799 -39.951  20.620  0.00  0.00    +0.000 A 
ATOM     16  C   UNL     1     -19.500 -40.188  20.857  0.00  0.00    +0.000 A 
ENDBRANCH  10  11
ENDBRANCH   2   1
TORSDOF 4
ENDMDL
MODEL 10
REMARK VINA RESULT:      -7.7      4.102      8.522
REMARK  Name = Fragment
REMARK  4 active torsions:
REMARK  status: ('A' for Active; 'I' for Inactive)
REMARK    1  A    between atoms: C_1  and  C_2
REMARK    2  A    between atoms: C_2  and  C_4
REMARK    3  A    between atoms: C_7  and  C_17
REMARK    4  A    between atoms: C_10  and  C_11
REMARK                            x       y       z     vdW  Elec       q    Type
REMARK                         _______ _______ _______ _____ _____    ______ ____
ROOT
ATOM      2  C   UNL     1     -19.872 -42.370  24.683  0.00  0.00    +0.000 C 
ATOM      3  O   UNL     1     -20.824 -42.743  25.342  0.00  0.00    +0.000 OA
ENDROOT
BRANCH   2   4
ATOM      4  C   UNL     1     -18.597 -42.499  25.183  0.00  0.00    +0.000 A 
ATOM      5  C   UNL     1     -17.576 -42.780  24.343  0.00  0.00    +0.000 A 
ATOM      6  C   UNL     1     -16.308 -42.919  24.764  0.00  0.00    +0.000 A 
ATOM      7  C   UNL     1     -16.007 -42.782  26.062  0.00  0.00    +0.000 A 
ATOM      8  C   UNL     1     -16.999 -42.504  26.919  0.00  0.00    +0.000 A 
ATOM      9  C   UNL     1     -18.264 -42.366  26.486  0.00  0.00    +0.000 A 
BRANCH   7  17
ATOM     17  C   UNL     1     -14.767 -42.917  26.485  0.00  0.00    +0.000 C 
ATOM     18  N   UNL     1     -13.676 -43.040  26.854  0.00  0.00    +0.000 NA
ENDBRANCH   7  17
ENDBRANCH   2   4
BRANCH   2   1
ATOM      1  C   UNL     1     -20.102 -41.826  23.447  0.00  0.00    +0.000 C 
ATOM     10  C   UNL     1     -20.260 -40.507  23.211  0.00  0.00    +0.000 C 
BRANCH  10  11
ATOM     11  C   UNL     1     -20.489 -39.895  22.027  0.00  0.00    +0.000 A 
ATOM     12  C   UNL     1     -19.602 -40.071  21.024  0.00  0.00    +0.000 A 
ATOM     13  C   UNL     1     -19.761 -39.497  19.821  0.00  0.00    +0.000 A 
ATOM     14  C   UNL     1     -20.827 -38.720  19.585  0.00  0.00    +0.000 A 
ATOM     15  C   UNL     1     -21.722 -38.528  20.563  0.00  0.00    +0.000 A 
ATOM     16  C   UNL     1     -21.552 -39.108  21.762  0.00  0.00    +0.000 A 
ENDBRANCH  10  11
ENDBRANCH   2   1
TORSDOF 4
ENDMDL
